15
rl
     C  -0.257728  -1.000886   0.579750
     C   0.728974  -0.071607   1.341114
     C  -1.448487  -0.031975   0.368514
     C   0.422012  -0.899713  -0.852195
     H  -0.435642  -1.969863   0.991325
     C   1.175227   0.873418   0.433341
     H   1.096789  -0.096020   2.285525
     C  -1.102598   0.861691  -0.539261
     H  -2.577937  -0.259799   0.793439
     C   0.350124   0.695001  -0.931293
     H   1.369874  -1.497768  -0.915181
     H  -0.498761  -1.299816  -1.487122
     H   1.956108   1.706477   0.621442
     H  -1.824969   1.708367  -0.891355
     H   0.690675   1.153842  -1.957640
15
rl
     C  -0.259121  -1.004230   0.578664
     C   0.725959  -0.073029   1.341611
     C  -1.450362  -0.033639   0.372435
     C   0.423394  -0.894880  -0.852111
     H  -0.443431  -1.989193   0.983428
     C   1.175746   0.880719   0.429675
     H   1.114721  -0.095141   2.325255
     C  -1.104395   0.862796  -0.539208
     H  -2.535232  -0.256825   0.773409
     C   0.349598   0.690970  -0.926377
     H   1.353297  -1.505199  -0.931255
     H  -0.486130  -1.295102  -1.484640
     H   1.961645   1.689280   0.600502
     H  -1.812916   1.722632  -0.913460
     H   0.703989   1.141925  -1.969021
15
rl
     C  -0.260097  -1.007056   0.577357
     C   0.721962  -0.075784   1.342933
     C  -1.453304  -0.037715   0.379042
     C   0.423852  -0.890238  -0.852192
     H  -0.452766  -2.015615   0.978261
     C   1.176803   0.889734   0.424330
     H   1.135207  -0.095367   2.375435
     C  -1.105792   0.866645  -0.541604
     H  -2.490813  -0.253605   0.752572
     C   0.349669   0.686708  -0.921590
     H   1.340493  -1.513587  -0.948186
     H  -0.470587  -1.290678  -1.483811
     H   1.967909   1.672888   0.579797
     H  -1.798748   1.735802  -0.934909
     H   0.717241   1.130006  -1.977703
15
rl
     C  -0.260615  -1.009554   0.575953
     C   0.717176  -0.079827   1.345601
     C  -1.456865  -0.043899   0.387847
     C   0.423344  -0.885798  -0.852428
     H  -0.463377  -2.046859   0.974818
     C   1.178273   0.900375   0.417346
     H   1.155780  -0.096753   2.429406
     C  -1.106861   0.872953  -0.546151
     H  -2.449483  -0.250781   0.733075
     C   0.350565   0.682297  -0.917002
     H   1.331808  -1.522837  -0.965833
     H  -0.452983  -1.286910  -1.485129
     H   1.975607   1.657892   0.559188
     H  -1.782979   1.747932  -0.955540
     H   0.729780   1.117830  -1.982976
15
rl
     C  -0.260775  -1.011967   0.574494
     C   0.711855  -0.084967   1.349816
     C  -1.460546  -0.051856   0.398513
     C   0.421981  -0.881615  -0.852772
     H  -0.474592  -2.080357   0.972178
     C   1.179958   0.912342   0.408930
     H   1.174795  -0.099113   2.482654
     C  -1.107629   0.881521  -0.552656
     H  -2.416471  -0.249632   0.716767
     C   0.352273   0.677806  -0.912730
     H   1.327172  -1.532691  -0.984051
     H  -0.434321  -1.283900  -1.488945
     H   1.986067   1.645462   0.538981
     H  -1.765678   1.758715  -0.975215
     H   0.741385   1.105290  -1.984296
15
rl
     C  -0.260651  -1.014533   0.573042
     C   0.706226  -0.091004   1.355685
     C  -1.463778  -0.061167   0.410587
     C   0.419900  -0.877756  -0.853183
     H  -0.485805  -2.113645   0.969469
     C   1.181686   0.925356   0.399310
     H   1.190985  -0.102349   2.531777
     C  -1.108151   0.892042  -0.560831
     H  -2.397604  -0.251486   0.705602
     C   0.354782   0.673305  -0.908874
     H   1.326130  -1.542636  -1.002588
     H  -0.415642  -1.281802  -1.495671
     H   2.000403   1.636411   0.519309
     H  -1.747169   1.768211  -0.993915
     H   0.751873   1.092363  -1.981403
15
rl
     C  -0.260303  -1.017469   0.571650
     C   0.700488  -0.097718   1.363222
     C  -1.466082  -0.071421   0.423637
     C   0.417251  -0.874302  -0.853631
     H  -0.496476  -2.144611   0.965978
     C   1.183311   0.939157   0.388745
     H   1.203461  -0.106412   2.574425
     C  -1.108466   0.904169  -0.570359
     H  -2.397568  -0.257392   0.700972
     C   0.358059   0.668857  -0.905517
     H   1.327960  -1.551982  -1.021105
     H  -0.397928  -1.280757  -1.505696
     H   2.019334   1.631157   0.500195
     H  -1.727934   1.776777  -1.011734
     H   0.761156   1.079111  -1.974311
15
rl
     C  -0.259781  -1.020950   0.570360
     C   0.694816  -0.104885   1.372366
     C  -1.467251  -0.082273   0.437338
     C   0.414189  -0.871343  -0.854101
     H  -0.506146  -2.171597   0.961176
     C   1.184734   0.953519   0.377507
     H   1.211645  -0.111280   2.609062
     C  -1.108589   0.917546  -0.580924
     H  -2.417922  -0.267712   0.703121
     C   0.362047   0.664517  -0.902730
     H   1.331814  -1.559958  -1.039204
     H  -0.381995  -1.280846  -1.519298
     H   2.043043   1.629656   0.481556
     H  -1.708569   1.785015  -1.028878
     H   0.769248   1.065681  -1.963316
15
rl
     C  -0.259122  -1.025104   0.569201
     C   0.689365  -0.112284   1.383000
     C  -1.467429  -0.093481   0.451501
     C   0.410849  -0.868979  -0.854596
     H  -0.514436  -2.193407   0.954707
     C   1.185906   0.968252   0.365891
     H   1.215178  -0.116942   2.634735
     C  -1.108498   0.931831  -0.592232
     H  -2.456265  -0.281989   0.711082
     C   0.366663   0.660328  -0.900571
     H   1.336833  -1.565811  -1.056460
     H  -0.368387  -1.282044  -1.536578
     H   2.071114   1.631452   0.463227
     H  -1.689743   1.793723  -1.045665
     H   0.776279   1.052305  -1.948990
15
rl
     C  -0.258357  -1.030001   0.568198
     C   0.684286  -0.119680   1.394960
     C  -1.467019  -0.104906   0.466047
     C   0.407331  -0.867313  -0.855143
     H  -0.521048  -2.209271   0.946364
     C   1.186808   0.983159   0.354227
     H   1.213819  -0.123386   2.650812
     C  -1.108127   0.946720  -0.604020
     H  -2.507347  -0.299177   0.723193
     C   0.371789   0.656317  -0.899097
     H   1.342235  -1.568861  -1.072438
     H  -0.357296  -1.284180  -1.557416
     H   2.102590   1.635903   0.444977
     H  -1.672143   1.803843  -1.062496
     H   0.782488   1.039302  -1.932193
15
rl
     C  -0.257519  -1.035619   0.567370
     C   0.679764  -0.126765   1.408003
     C  -1.466489  -0.116539   0.480975
     C   0.403688  -0.866457  -0.855793
     H  -0.525766  -2.218805   0.936051
     C   1.187397   0.997928   0.342958
     H   1.207295  -0.130559   2.656612
     C  -1.107321   0.961990  -0.616068
     H  -2.565135  -0.317965   0.737756
     C   0.377261   0.652485  -0.898395
     H   1.347359  -1.568536  -1.086703
     H  -0.348508  -1.286924  -1.581523
     H   2.136091   1.642652   0.426542
     H  -1.656427   1.816414  -1.079859
     H   0.788200   1.027089  -1.914066
