180
boop
     C  -0.069069  -4.422190  -1.133530
     C  -1.097557  -4.794554  -1.993567
     H   0.442653  -3.455476  -1.249931
     C   0.334430  -5.299505  -0.082076
     C  -1.758283  -6.049141  -1.835508
     H  -1.396724  -4.113991  -2.805950
     C  -0.334354  -6.570333   0.081958
     C   1.383454  -4.947986   0.819134
     C  -1.383484  -6.921824  -0.819111
     H  -2.571329  -6.333603  -2.520633
     C   0.069095  -7.447587   1.133501
     C   1.758238  -5.820644   1.835565
     H   1.885270  -3.978502   0.685839
     H  -1.885277  -7.891322  -0.685867
     C   1.097522  -7.075237   1.993640
     H  -0.442641  -8.414295   1.249936
     H   2.571346  -5.536185   2.520618
     H   1.396710  -7.755820   2.805984
     C   0.295187  -1.976765  -4.500120
     C  -0.073239  -2.855476  -5.511902
     H  -0.210802  -1.008668  -4.372419
     C   1.344059  -2.331749  -3.601645
     C   0.581235  -4.111585  -5.679723
     H  -0.885388  -2.572259  -6.198821
     C   2.010649  -3.603397  -3.768714
     C   1.745544  -1.453114  -2.551350
     C   1.609257  -4.482799  -4.819422
     H   0.278575  -4.789182  -6.493873
     C   3.059515  -3.954741  -2.867620
     C   2.774030  -1.827215  -1.692561
     H   1.232274  -0.486950  -2.437066
     H   2.120061  -5.449596  -4.936849
     C   3.434156  -3.082018  -1.851256
     H   3.561068  -4.924210  -3.001198
     H   3.072383  -1.146127  -0.880681
     H   4.247197  -3.366184  -1.166095
     C  -3.433935  -2.853226   1.851451
     C  -2.773163  -4.107779   1.693297
     C  -3.059126  -1.980531   2.867831
     H  -4.246973  -2.568738   1.166328
     C  -1.744758  -4.480164   2.553432
     H  -3.072361  -4.788365   0.880951
     C  -2.010019  -2.332025   3.768929
     H  -3.560922  -1.011030   3.001056
     H  -1.233013  -5.446855   2.436951
     C  -1.341279  -3.602874   3.604925
     C  -1.606540  -1.454735   4.820422
     C  -0.292172  -3.954367   4.506024
     C  -0.578134  -1.827119   5.680557
     H  -2.118285  -0.488043   4.936903
     C   0.082637  -3.081672   5.522403
     H   0.209624  -4.923868   4.372798
     H  -0.278937  -1.146533   6.492903
     H   0.895675  -3.366160   6.207526
     C  -3.433935   3.081674   1.851451
     C  -3.059126   3.954369   2.867831
     C  -2.773164   1.827121   1.693298
     H  -4.246973   3.366162   1.166328
     C  -2.010019   3.602875   3.768929
     H  -3.560922   4.923869   3.001056
     C  -1.744758   1.454736   2.553432
     H  -3.072361   1.146535   0.880951
     C  -1.341279   2.332026   3.604925
     C  -1.606540   4.480165   4.820422
     H  -1.233013   0.488045   2.436952
     C  -0.292172   1.980533   4.506024
     C  -0.578134   4.107781   5.680557
     H  -2.118285   5.446856   4.936903
     C   0.082637   2.853227   5.522403
     H   0.209624   1.011032   4.372798
     H  -0.278937   4.788367   6.492903
     H   0.895675   2.568739   6.207526
     H  -3.572750   2.566574  -1.165739
     C  -4.384130   2.852261  -1.852227
     C  -4.762163   1.981423  -2.870144
     C  -5.045396   4.106837  -1.692732
     C  -5.814654   2.331962  -3.770049
     H  -4.262364   1.010363  -3.000909
     C  -6.073832   4.480009  -2.553419
     H  -4.748464   4.787897  -0.879879
     C  -6.224468   1.454893  -4.820463
     C  -6.483647   3.602939  -3.603834
     H  -6.589583   5.445107  -2.436449
     C  -7.252904   1.828065  -5.681151
     H  -5.708718   0.489795  -4.937434
     C  -7.536137   3.953478  -4.503739
     C  -7.914171   3.082641  -5.521656
     H  -7.549836   1.147004  -6.494004
     H  -8.035936   4.924538  -4.372974
     H  -8.725551   3.368328  -6.208144
     H  -1.885277   3.978477  -0.685867
     C  -1.383484   4.947975  -0.819111
     C  -1.758283   5.820659  -1.835508
     C  -0.334354   5.299467   0.081958
     C  -1.097557   7.075246  -1.993567
     H  -2.571329   5.536196  -2.520633
     C   0.334430   6.570295  -0.082076
     C   0.069095   4.422213   1.133501
     C  -0.069069   7.447609  -1.133530
     H  -1.396724   7.755809  -2.805950
     C   1.383454   6.921814   0.819134
     C   1.097522   4.794563   1.993640
     H  -0.442641   3.455505   1.249936
     H   0.442653   8.414324  -1.249931
     C   1.758238   6.049156   1.835565
     H   1.885270   7.891297   0.685839
     H   1.396710   4.113980   2.805984
     H   2.571346   6.333615   2.520618
     H  -4.748464  -1.147003  -0.879879
     C  -5.045396  -1.828063  -1.692732
     C  -4.384130  -3.082639  -1.852227
     C  -6.073832  -1.454891  -2.553419
     C  -4.762163  -3.953477  -2.870144
     H  -3.572750  -3.368326  -1.165739
     C  -6.483647  -2.331961  -3.603834
     H  -6.589583  -0.489793  -2.436448
     C  -5.814654  -3.602938  -3.770049
     H  -4.262364  -4.924536  -3.000909
     C  -7.536137  -1.981421  -4.503739
     C  -6.224468  -4.480007  -4.820464
     C  -7.914171  -2.852259  -5.521656
     H  -8.035936  -1.010362  -4.372973
     C  -7.252904  -4.106835  -5.681151
     H  -5.708718  -5.445105  -4.937435
     H  -8.725551  -2.566572  -6.208144
     H  -7.549836  -4.787895  -6.494004
     C   2.010063   2.332046  -3.768973
     C   1.606595   1.454769  -4.820478
     C   1.341237   3.602855  -3.604910
     C   3.059111   1.980530  -2.867793
     C   0.578086   1.827097  -5.680517
     H   2.118308   0.488038  -4.936834
     C   0.292188   3.954371  -4.506090
     C   1.744705   4.480132  -2.553405
     C   3.433885   2.853177  -1.851343
     H   3.560924   1.011049  -3.001106
     C  -0.082585   3.081725  -5.522539
     H   0.278928   1.146538  -6.492899
     H  -0.209624   4.923853  -4.372777
     C   2.773214   4.107805  -1.693365
     H   1.232992   5.446864  -2.437050
     H   4.247001   2.568744  -1.166289
     H  -0.895701   3.366158  -6.207594
     H   3.072372   4.788363  -0.880984
     H   3.572778  -2.566568   1.165778
     C   4.384090  -2.852303   1.852325
     C   5.045437  -4.106818   1.692674
     C   4.762144  -1.981425   2.870185
     C   6.073776  -4.480042   2.553450
     H   4.748475  -4.787899   0.879846
     C   5.814706  -2.331935   3.769996
     H   4.262367  -1.010344   3.000859
     C   6.483596  -3.602963   3.603858
     H   6.589563  -5.445097   2.436348
     C   6.224526  -1.454857   4.820405
     C   7.536158  -3.953473   4.503669
     C   7.252866  -1.828081   5.681180
     H   5.708740  -0.489802   4.937507
     C   7.914213  -3.082595   5.521529
     H   8.035936  -4.924554   4.372995
     H   7.549827  -1.146999   6.494008
     H   8.725524  -3.368330   6.208077
     H   4.748475   1.147001   0.879846
     C   5.045437   1.828082   1.692675
     C   4.384090   3.082597   1.852325
     C   6.073776   1.454858   2.553450
     C   4.762144   3.953474   2.870185
     H   3.572778   3.368332   1.165778
     C   6.483596   2.331937   3.603858
     H   6.589562   0.489803   2.436348
     C   5.814707   3.602965   3.769996
     H   4.262367   4.924555   3.000859
     C   7.536158   1.981427   4.503669
     C   6.224526   4.480043   4.820405
     C   7.914213   2.852305   5.521529
     H   8.035936   1.010346   4.372995
     C   7.252866   4.106819   5.681180
     H   5.708740   5.445098   4.937507
     H   8.725524   2.566570   6.208076
     H   7.549827   4.787901   6.494008
