814
clust
     C  -9.767238   0.406395  -1.483657
     C -10.959449   0.283514  -0.808113
     C  -8.649285  -0.418513  -1.157643
     H  -9.691550   1.143750  -2.278582
     C -11.133443  -0.651465   0.242524
     H -11.783948   0.936842  -1.096227
     C  -8.814912  -1.355916  -0.101027
     N  -7.475390  -0.314123  -1.832121
     C -12.334143  -0.777891   1.007753
     C -10.014998  -1.455737   0.568595
     H  -7.986738  -1.992856   0.199533
     C  -7.330060   0.667905  -2.895307
     C  -6.361804  -1.198550  -1.518413
     C -13.517020  -0.111006   0.819642
     H -12.291273  -1.472914   1.853314
     H -10.112376  -2.173249   1.384631
     H  -7.522680   1.685632  -2.521937
     H  -6.310389   0.627754  -3.289287
     H  -8.029641   0.466657  -3.720157
     H  -6.662556  -2.253528  -1.607052
     H  -5.543918  -1.007403  -2.219938
     H  -5.993883  -1.029886  -0.494522
     C -14.637088  -0.285034   1.705923
     H -13.623016   0.576352  -0.017203
     C -15.928877   0.377730   1.438127
     O -14.539633  -1.024996   2.751969
     C -17.009284   0.174537   2.348763
     C -16.165903   1.200154   0.316297
     H -15.860523  -0.909877   3.373563
     C -18.262151   0.756973   2.099398
     O -16.851886  -0.579229   3.454503
     C -17.401639   1.785028   0.085236
     H -15.365493   1.397210  -0.395093
     C -18.454780   1.553487   0.980364
     H -19.070151   0.549903   2.801070
     H -17.550460   2.422904  -0.785524
     H -19.432417   1.999446   0.790597
     H  -3.765161  -2.137047  -7.686962
     O  -2.773800  -2.467695  -7.767903
     O  -5.086053  -2.021928  -7.065368
     C  -2.616401  -3.221460  -6.662161
     C  -4.988597  -2.761890  -6.019321
     C  -1.363533  -3.803897  -6.412797
     C  -3.696809  -3.424654  -5.751525
     C  -6.108665  -2.935918  -5.133041
     C  -1.170904  -4.600411  -5.293763
     H  -0.555533  -3.596828  -7.114469
     C  -3.459782  -4.247078  -4.629695
     C  -7.291543  -2.269034  -5.321151
     H  -6.002669  -3.623277  -4.296197
     C  -2.224046  -4.831952  -4.398635
     H  -0.193269  -5.046370  -5.103995
     H  -4.260192  -4.444136  -3.918305
     C  -8.492241  -2.395460  -4.555923
     H  -7.334412  -1.574010  -6.166713
     H  -2.075225  -5.469828  -3.527874
     C  -9.610688  -1.591188  -4.881995
     C  -8.666235  -3.330438  -3.505285
     C -10.810773  -1.691009  -4.212372
     H  -9.513309  -0.873676  -5.698029
     C  -9.858446  -3.453319  -2.829742
     H  -7.841738  -3.983766  -3.217172
     C -10.976399  -2.628411  -3.155755
     H -11.638946  -1.054069  -4.512932
     H  -9.934134  -4.190675  -2.034816
     N -12.150295  -2.732802  -2.481277
     C -12.295625  -3.714830  -1.418092
     C -13.263882  -1.848374  -2.794986
     H -12.103005  -4.732556  -1.791463
     H -13.315295  -3.674679  -1.024111
     H -11.596044  -3.513582  -0.593242
     H -14.081768  -2.039521  -2.093460
     H -13.631801  -2.017037  -3.818877
     H -12.963128  -0.793397  -2.706346
     C  -2.153274  -8.363961  -3.273337
     C  -3.406141  -8.946397  -3.522702
     C  -1.072866  -8.567154  -4.183973
     O  -1.995875  -7.610195  -2.167596
     C  -3.598770  -9.742911  -4.641736
     H  -4.214141  -8.739328  -2.821029
     C  -1.309892  -9.389578  -5.305803
     C   0.218922  -7.904390  -3.916177
     H  -1.004513  -7.279547  -2.248536
     C  -2.545629  -9.974452  -5.536863
     H  -4.576407 -10.188870  -4.831503
     H  -0.509483  -9.586636  -6.017193
     C   1.338990  -8.078418  -4.802457
     O   0.316377  -7.164428  -2.870131
     H  -2.694450 -10.612328  -6.407624
     C   2.521867  -7.411533  -4.614347
     H   1.232994  -8.765777  -5.639302
     C   3.722567  -7.537959  -5.379575
     H   2.564738  -6.716510  -3.768786
     C   3.896560  -8.472938  -6.430213
     C   4.841013  -6.733688  -5.053505
     H   3.072062  -9.126266  -6.718326
     C   5.088772  -8.595819  -7.105757
     C   6.041098  -6.833509  -5.723126
     H   4.743634  -6.016175  -4.237469
     C   6.206725  -7.770911  -6.779743
     H   5.164459  -9.333174  -7.900682
     H   6.869272  -6.196568  -5.422566
     N   7.380620  -7.875302  -7.454221
     C   7.525950  -8.857329  -8.517407
     C   8.494207  -6.990874  -7.140512
     H   7.333330  -9.875056  -8.144036
     H   8.545620  -8.817179  -8.911386
     H   6.826369  -8.656082  -9.342257
     H   8.193454  -5.935896  -7.229152
     H   9.312092  -7.182021  -7.842038
     H   8.862126  -7.159538  -6.116621
     C  -5.352411  -4.967964  -1.040062
     C  -4.099543  -4.385527  -0.790697
     C  -6.432819  -4.764770  -0.129426
     O  -5.509809  -5.721729  -2.145803
     C  -3.906915  -3.589013   0.328337
     H  -3.291544  -4.592597  -1.492369
     C  -6.195792  -3.942346   0.992405
     C  -7.724607  -5.427534  -0.397221
     H  -6.501172  -6.052377  -2.064862
     C  -4.960056  -3.357472   1.223465
     H  -2.929279  -3.143054   0.518104
     H  -6.996202  -3.745290   1.703795
     C  -8.844675  -5.253506   0.489059
     O  -7.822063  -6.167496  -1.443268
     H  -4.811236  -2.719596   2.094225
     C -10.027553  -5.920391   0.300949
     H  -8.738679  -4.566147   1.325903
     C -11.228251  -5.793965   1.066177
     H -10.070422  -6.615414  -0.544613
     C -12.346698  -6.598236   0.740105
     C -11.402245  -4.858986   2.116815
     C -13.546784  -6.498415   1.409728
     H -12.249319  -7.315749  -0.075929
     C -12.594456  -4.736105   2.792358
     H -10.577748  -4.205658   2.404928
     C -13.712409  -5.561013   2.466344
     H -14.374957  -7.135356   1.109168
     H -12.670144  -3.998750   3.587283
     N -14.886305  -5.456622   3.140822
     C -15.999892  -6.341050   2.827114
     C -15.031635  -4.474594   4.204008
     H -15.699138  -7.396028   2.915753
     H -16.817778  -6.149903   3.528640
     H -16.367811  -6.172387   1.803223
     H -14.839015  -3.456868   3.830637
     H -16.051306  -4.514745   4.597988
     H -14.332054  -4.675843   5.028858
     C  -0.474456  -4.736105   2.792358
     C  -1.592409  -5.561013   2.466344
     H  -0.550144  -3.998750   3.587283
     C   0.717755  -4.858986   2.116815
     C  -1.426784  -6.498415   1.409728
     N  -2.766305  -5.456622   3.140822
     C   0.891748  -5.793965   1.066177
     H   1.542252  -4.205658   2.404928
     C  -0.226698  -6.598236   0.740105
     H  -2.254957  -7.135356   1.109168
     C  -3.879892  -6.341050   2.827114
     C  -2.911635  -4.474594   4.204008
     C   2.092447  -5.920391   0.300949
     H  -0.129319  -7.315749  -0.075929
     H  -3.579139  -7.396028   2.915753
     H  -4.697778  -6.149903   3.528640
     H  -4.247811  -6.172387   1.803223
     H  -2.719015  -3.456868   3.830637
     H  -3.931306  -4.514745   4.597988
     H  -2.212054  -4.675843   5.028858
     C   3.275325  -5.253506   0.489059
     H   2.049578  -6.615414  -0.544613
     C   4.395393  -5.427534  -0.397221
     H   3.381321  -4.566147   1.325903
     C   5.687181  -4.764770  -0.129426
     O   4.297937  -6.167496  -1.443268
     C   6.767588  -4.967964  -1.040062
     C   5.924208  -3.942346   0.992405
     H   5.618828  -6.052377  -2.064862
     C   8.020457  -4.385527  -0.790697
     O   6.610191  -5.721729  -2.145803
     C   7.159944  -3.357472   1.223465
     H   5.123798  -3.745290   1.703795
     C   8.213085  -3.589013   0.328337
     H   8.828456  -4.592597  -1.492369
     H   7.308764  -2.719596   2.094225
     H   9.190721  -3.143054   0.518104
     C   2.261554  -3.453319  -2.829742
     C   1.143601  -2.628411  -3.155755
     H   2.185866  -4.190675  -2.034816
     C   3.453765  -3.330438  -3.505285
     C   1.309227  -1.691009  -4.212372
     N  -0.030295  -2.732802  -2.481277
     C   3.627758  -2.395460  -4.555923
     H   4.278262  -3.983766  -3.217172
     C   2.509312  -1.591188  -4.881995
     H   0.481054  -1.054069  -4.512932
     C  -0.175625  -3.714830  -1.418092
     C  -1.143882  -1.848374  -2.794986
     C   4.828457  -2.269034  -5.321151
     H   2.606691  -0.873676  -5.698029
     H   0.016995  -4.732556  -1.791463
     H  -1.195295  -3.674679  -1.024111
     H   0.523956  -3.513582  -0.593242
     H  -1.961768  -2.039521  -2.093460
     H  -1.511801  -2.017037  -3.818877
     H  -0.843129  -0.793397  -2.706346
     C   6.011335  -2.935918  -5.133041
     H   4.785588  -1.574010  -6.166713
     C   7.131403  -2.761890  -6.019321
     H   6.117331  -3.623277  -4.296197
     C   8.423191  -3.424654  -5.751525
     O   7.033947  -2.021928  -7.065368
     C   9.503598  -3.221460  -6.662161
     C   8.660218  -4.247078  -4.629695
     H   8.354838  -2.137047  -7.686962
     O   9.346200  -2.467695  -7.767903
     C  10.756467  -3.803897  -6.412797
     C   9.895954  -4.831952  -4.398635
     H   7.859808  -4.444136  -3.918305
     C  10.949096  -4.600411  -5.293763
     H  11.564467  -3.596828  -7.114469
     H  10.044775  -5.469828  -3.527874
     H  11.926731  -5.046370  -5.103995
     C  -1.749453  -7.537959   5.864625
     C  -2.950153  -7.411533   6.629852
     C  -1.575460  -8.472938   4.813987
     C  -0.631007  -6.733688   6.190695
     C  -4.133031  -8.078418   6.441742
     H  -2.907283  -6.716510   7.475414
     H  -2.399958  -9.126266   4.525873
     C  -0.383249  -8.595819   4.138442
     C   0.569078  -6.833509   5.521073
     H  -0.728386  -6.016175   7.006731
     C  -5.253098  -7.904390   7.328022
     H  -4.239027  -8.765777   5.604898
     C   0.734704  -7.770911   4.464457
     H  -0.307561  -9.333174   3.343517
     H   1.397251  -6.196568   5.821634
     C  -6.544886  -8.567154   7.060226
     O  -5.155643  -7.164428   8.374069
     N   1.908600  -7.875302   3.789979
     C  -7.625294  -8.363961   7.970863
     C  -6.781913  -9.389578   5.938397
     H  -6.476533  -7.279547   8.995663
     C   2.053930  -8.857329   2.726793
     C   3.022187  -6.990874   4.103687
     C  -8.878162  -8.946397   7.721498
     O  -7.467896  -7.610195   9.076603
     C  -8.017649  -9.974452   5.707336
     H  -5.981504  -9.586636   5.227006
     H   1.861310  -9.875056   3.100163
     H   3.073600  -8.817179   2.332813
     H   1.354349  -8.656082   1.901943
     H   2.721434  -5.935896   4.015047
     H   3.840072  -7.182021   3.402162
     H   3.390106  -7.159538   5.127578
     C  -9.070791  -9.742911   6.602464
     H  -9.686162  -8.739328   8.423171
     H  -8.166470 -10.612328   4.836576
     H -10.048427 -10.188870   6.412697
     C  -3.210467  -3.453319   8.414458
     C  -4.328420  -2.628411   8.088444
     H  -3.286154  -4.190675   9.209384
     C  -2.018255  -3.330438   7.738914
     C  -4.162793  -1.691009   7.031828
     N  -5.502315  -2.732802   8.762922
     C  -1.844262  -2.395460   6.688276
     H  -1.193758  -3.983766   8.027028
     C  -2.962708  -1.591188   6.362205
     H  -4.990966  -1.054069   6.731267
     C  -5.647645  -3.714830   9.826108
     C  -6.615902  -1.848374   8.449214
     C  -0.643563  -2.269034   5.923049
     H  -2.865329  -0.873676   5.546170
     H  -5.455025  -4.732556   9.452737
     H  -6.667316  -3.674679  10.220088
     H  -4.948064  -3.513582  10.650958
     H  -7.433788  -2.039521   9.150739
     H  -6.983821  -2.017037   7.425323
     H  -6.315149  -0.793397   8.537853
     C   0.539314  -2.935918   6.111159
     H  -0.686433  -1.574010   5.077486
     C   1.659383  -2.761890   5.224878
     H   0.645310  -3.623277   6.948003
     C   2.951171  -3.424654   5.492675
     O   1.561927  -2.021928   4.178831
     C   4.031578  -3.221460   4.582038
     C   3.188197  -4.247078   6.614504
     H   2.882818  -2.137047   3.557237
     O   3.874180  -2.467695   3.476297
     C   5.284447  -3.803897   4.831402
     C   4.423934  -4.831952   6.845565
     H   2.387788  -4.444136   7.325895
     C   5.477075  -4.600411   5.950436
     H   6.092446  -3.596828   4.129730
     H   4.572755  -5.469828   7.716325
     H   6.454711  -5.046370   6.140204
     C   0.582736   0.174537  -8.895436
     C  -0.670131   0.756973  -9.144801
     C   1.663143   0.377730  -9.806073
     O   0.740135  -0.579229  -7.789696
     C  -0.862760   1.553487 -10.263835
     H  -1.478131   0.549903  -8.443129
     C   1.426117   1.200154 -10.927902
     C   2.954932  -0.285034  -9.538276
     H   1.731497  -0.909877  -7.870636
     C   0.190381   1.785028 -11.158964
     H  -1.840397   1.999446 -10.453602
     H   2.226527   1.397210 -11.639293
     C   4.075000  -0.111006 -10.424558
     O   3.052388  -1.024996  -8.492230
     H   0.041560   2.422904 -12.029723
     C   5.257877  -0.777891 -10.236447
     H   3.969004   0.576352 -11.261402
     C   6.458577  -0.651465 -11.001675
     H   5.300747  -1.472914  -9.390885
     C   6.632571   0.283514 -12.052312
     C   7.577022  -1.455737 -10.675604
     C   7.824782   0.406395 -12.727857
     H   5.808072   0.936842 -12.340427
     C   8.777108  -1.355916 -11.345227
     H   7.479644  -2.173249  -9.859568
     C   8.942735  -0.418513 -12.401842
     H   7.900470   1.143750 -13.522782
     H   9.605282  -1.992856 -11.044666
     N  10.116630  -0.314123 -13.076320
     C  10.261960   0.667905 -14.139507
     C  11.230216  -1.198550 -12.762613
     H  10.069340   1.685632 -13.766136
     H  11.281631   0.627754 -14.533486
     H   9.562379   0.466657 -14.964357
     H  10.929464  -2.253528 -12.851251
     H  12.048102  -1.007403 -13.464137
     H  11.598137  -1.029886 -11.738722
     C  -4.594049   1.427670  -8.517407
     H  -4.786669   0.409944  -8.144036
     H  -3.574380   1.467821  -8.911386
     H  -5.293631   1.628918  -9.342257
     N  -4.739380   2.409698  -7.454221
     C  -5.913275   2.514089  -6.779743
     C  -3.625793   3.294126  -7.140512
     C  -7.031228   1.689181  -7.105757
     C  -6.078902   3.451491  -5.723126
     H  -3.926546   4.349103  -7.229152
     H  -2.807908   3.102979  -7.842038
     H  -3.257873   3.125462  -6.116621
     C  -8.223439   1.812062  -6.430213
     H  -6.955540   0.951826  -7.900682
     C  -7.278987   3.551312  -5.053505
     H  -5.250728   4.088431  -5.422566
     C  -8.397433   2.747041  -5.379575
     H  -9.047938   1.158734  -6.718326
     H  -7.376366   4.268824  -4.237469
     C  -9.598133   2.873467  -4.614347
     C -10.781010   2.206582  -4.802457
     H  -9.555262   3.568489  -3.768786
     C -11.901078   2.380610  -3.916177
     H -10.887006   1.519223  -5.639302
     C -13.192866   1.717846  -4.183973
     O -11.803623   3.120572  -2.870131
     C -14.273274   1.921039  -3.273337
     C -13.429892   0.895422  -5.305803
     H -13.124513   3.005452  -2.248536
     C -15.526141   1.338603  -3.522702
     O -14.115875   2.674805  -2.167596
     C -14.665628   0.310547  -5.536863
     H -12.629483   0.698364  -6.017193
     C -15.718770   0.542089  -4.641736
     H -16.334141   1.545672  -2.821029
     H -14.814450  -0.327328  -6.407624
     H -16.696407   0.096130  -4.831503
     C  -2.153274   1.921039  -3.273337
     C  -3.406141   1.338603  -3.522702
     C  -1.072866   1.717846  -4.183973
     O  -1.995875   2.674805  -2.167596
     C  -3.598770   0.542089  -4.641736
     H  -4.214141   1.545672  -2.821029
     C  -1.309892   0.895422  -5.305803
     C   0.218922   2.380610  -3.916177
     H  -1.004513   3.005452  -2.248536
     C  -2.545629   0.310547  -5.536863
     H  -4.576407   0.096130  -4.831503
     H  -0.509483   0.698364  -6.017193
     C   1.338990   2.206582  -4.802457
     O   0.316377   3.120572  -2.870131
     H  -2.694450  -0.327328  -6.407624
     C   2.521867   2.873467  -4.614347
     H   1.232994   1.519223  -5.639302
     C   3.722567   2.747041  -5.379575
     H   2.564738   3.568489  -3.768786
     C   3.896560   1.812062  -6.430213
     C   4.841013   3.551312  -5.053505
     H   3.072062   1.158734  -6.718326
     C   5.088772   1.689181  -7.105757
     C   6.041098   3.451491  -5.723126
     H   4.743634   4.268824  -4.237469
     C   6.206725   2.514089  -6.779743
     H   5.164459   0.951826  -7.900682
     H   6.869272   4.088431  -5.422566
     N   7.380620   2.409698  -7.454221
     C   7.525950   1.427670  -8.517407
     C   8.494207   3.294126  -7.140512
     H   7.333330   0.409944  -8.144036
     H   8.545620   1.467821  -8.911386
     H   6.826369   1.628918  -9.342257
     H   8.193454   4.349103  -7.229152
     H   9.312092   3.102979  -7.842038
     H   8.862126   3.125462  -6.116621
     C  -5.352411   5.317036  -1.040062
     C  -4.099543   5.899473  -0.790697
     C  -6.432819   5.520230  -0.129426
     O  -5.509809   4.563271  -2.145803
     C  -3.906915   6.695987   0.328337
     H  -3.291544   5.692403  -1.492369
     C  -6.195792   6.342654   0.992405
     C  -7.724607   4.857466  -0.397221
     H  -6.501172   4.232623  -2.064862
     C  -4.960056   6.927528   1.223465
     H  -2.929279   7.141946   0.518104
     H  -6.996202   6.539710   1.703795
     C  -8.844675   5.031494   0.489059
     O  -7.822063   4.117504  -1.443268
     H  -4.811236   7.565404   2.094225
     C -10.027553   4.364609   0.300949
     H  -8.738679   5.718852   1.325903
     C -11.228251   4.491035   1.066177
     H -10.070422   3.669586  -0.544613
     C -12.346698   3.686763   0.740105
     C -11.402245   5.426014   2.116815
     C -13.546784   3.786584   1.409728
     H -12.249319   2.969251  -0.075929
     C -12.594456   5.548895   2.792358
     H -10.577748   6.079342   2.404928
     C -13.712409   4.723987   2.466344
     H -14.374957   3.149644   1.109168
     H -12.670144   6.286250   3.587283
     N -14.886305   4.828377   3.140822
     C -15.999892   3.943950   2.827114
     C -15.031635   5.810406   4.204008
     H -15.699138   2.888972   2.915753
     H -16.817778   4.135097   3.528640
     H -16.367811   4.112613   1.803223
     H -14.839015   6.828132   3.830637
     H -16.051306   5.770254   4.597988
     H -14.332054   5.609157   5.028858
     C  -4.889284   0.174537   2.348763
     C  -6.142151   0.756973   2.099398
     C  -3.808877   0.377730   1.438127
     O  -4.731886  -0.579229   3.454503
     C  -6.334780   1.553487   0.980364
     H  -6.950151   0.549903   2.801070
     C  -4.045903   1.200154   0.316297
     C  -2.517088  -0.285034   1.705923
     H  -3.740523  -0.909877   3.373563
     C  -5.281640   1.785028   0.085236
     H  -7.312417   1.999446   0.790597
     H  -3.245493   1.397210  -0.395093
     C  -1.397020  -0.111006   0.819642
     O  -2.419633  -1.024996   2.751969
     H  -5.430460   2.422904  -0.785524
     C  -0.214143  -0.777891   1.007753
     H  -1.503016   0.576352  -0.017203
     C   0.986557  -0.651465   0.242524
     H  -0.171273  -1.472914   1.853314
     C   1.160550   0.283514  -0.808113
     C   2.105002  -1.455737   0.568595
     C   2.352762   0.406395  -1.483657
     H   0.336052   0.936842  -1.096227
     C   3.305088  -1.355916  -0.101027
     H   2.007624  -2.173249   1.384631
     C   3.470715  -0.418513  -1.157643
     H   2.428449   1.143750  -2.278582
     H   4.133262  -1.992856   0.199533
     N   4.644610  -0.314123  -1.832121
     C   4.789940   0.667905  -2.895307
     C   5.758196  -1.198550  -1.518413
     H   4.597320   1.685632  -2.521937
     H   5.809611   0.627754  -3.289287
     H   4.090359   0.466657  -3.720157
     H   5.457444  -2.253528  -1.607052
     H   6.576082  -1.007403  -2.219938
     H   6.126116  -1.029886  -0.494522
     C  -1.363533   6.481103  -6.412797
     C  -2.616401   7.063540  -6.662161
     C  -1.170904   5.684589  -5.293763
     H  -0.555533   6.688172  -7.114469
     O  -2.773800   7.817305  -7.767903
     C  -3.696809   6.860346  -5.751525
     C  -2.224046   5.453047  -4.398635
     H  -0.193269   5.238630  -5.103995
     H  -3.765161   8.147952  -7.686962
     C  -3.459782   6.037922  -4.629695
     C  -4.988597   7.523110  -6.019321
     H  -2.075225   4.815172  -3.527874
     O  -5.086053   8.263072  -7.065368
     H  -4.260192   5.840864  -3.918305
     C  -6.108665   7.349082  -5.133041
     C  -7.291543   8.015966  -5.321151
     H  -6.002669   6.661723  -4.296197
     C  -8.492241   7.889540  -4.555923
     H  -7.334412   8.710989  -6.166713
     C  -9.610688   8.693812  -4.881995
     C  -8.666235   6.954562  -3.505285
     C -10.810773   8.593991  -4.212372
     H  -9.513309   9.411324  -5.698029
     C  -9.858446   6.831681  -2.829742
     H  -7.841738   6.301234  -3.217172
     C -10.976399   7.656589  -3.155755
     H -11.638946   9.230931  -4.512932
     H  -9.934134   6.094325  -2.034816
     N -12.150295   7.552198  -2.481277
     C -12.295625   6.570169  -1.418092
     C -13.263882   8.436626  -2.794986
     H -12.103005   5.552444  -1.791463
     H -13.315295   6.610321  -1.024111
     H -11.596044   6.771418  -0.593242
     H -14.081768   8.245479  -2.093460
     H -13.631801   8.267963  -3.818877
     H -12.963128   9.491603  -2.706346
     C  -0.474456   5.548895   2.792358
     C  -1.592409   4.723987   2.466344
     H  -0.550144   6.286250   3.587283
     C   0.717755   5.426014   2.116815
     C  -1.426784   3.786584   1.409728
     N  -2.766305   4.828377   3.140822
     C   0.891748   4.491035   1.066177
     H   1.542252   6.079342   2.404928
     C  -0.226698   3.686763   0.740105
     H  -2.254957   3.149644   1.109168
     C  -3.879892   3.943950   2.827114
     C  -2.911635   5.810406   4.204008
     C   2.092447   4.364609   0.300949
     H  -0.129319   2.969251  -0.075929
     H  -3.579139   2.888972   2.915753
     H  -4.697778   4.135097   3.528640
     H  -4.247811   4.112613   1.803223
     H  -2.719015   6.828132   3.830637
     H  -3.931306   5.770254   4.597988
     H  -2.212054   5.609157   5.028858
     C   3.275325   5.031494   0.489059
     H   2.049578   3.669586  -0.544613
     C   4.395393   4.857466  -0.397221
     H   3.381321   5.718852   1.325903
     C   5.687181   5.520230  -0.129426
     O   4.297937   4.117504  -1.443268
     C   6.767588   5.317036  -1.040062
     C   5.924208   6.342654   0.992405
     H   5.618828   4.232623  -2.064862
     C   8.020457   5.899473  -0.790697
     O   6.610191   4.563271  -2.145803
     C   7.159944   6.927528   1.223465
     H   5.123798   6.539710   1.703795
     C   8.213085   6.695987   0.328337
     H   8.828456   5.692403  -1.492369
     H   7.308764   7.565404   2.094225
     H   9.190721   7.141946   0.518104
     C   2.261554   6.831681  -2.829742
     C   1.143601   7.656589  -3.155755
     H   2.185866   6.094325  -2.034816
     C   3.453765   6.954562  -3.505285
     C   1.309227   8.593991  -4.212372
     N  -0.030295   7.552198  -2.481277
     C   3.627758   7.889540  -4.555923
     H   4.278262   6.301234  -3.217172
     C   2.509312   8.693812  -4.881995
     H   0.481054   9.230931  -4.512932
     C  -0.175625   6.570169  -1.418092
     C  -1.143882   8.436626  -2.794986
     C   4.828457   8.015966  -5.321151
     H   2.606691   9.411324  -5.698029
     H   0.016995   5.552444  -1.791463
     H  -1.195295   6.610321  -1.024111
     H   0.523956   6.771418  -0.593242
     H  -1.961768   8.245479  -2.093460
     H  -1.511801   8.267963  -3.818877
     H  -0.843129   9.491603  -2.706346
     C   6.011335   7.349082  -5.133041
     H   4.785588   8.710989  -6.166713
     C   7.131403   7.523110  -6.019321
     H   6.117331   6.661723  -4.296197
     C   8.423191   6.860346  -5.751525
     O   7.033947   8.263072  -7.065368
     C   9.503598   7.063540  -6.662161
     C   8.660218   6.037922  -4.629695
     H   8.354838   8.147952  -7.686962
     O   9.346200   7.817305  -7.767903
     C  10.756467   6.481103  -6.412797
     C   9.895954   5.453047  -4.398635
     H   7.859808   5.840864  -3.918305
     C  10.949096   5.684589  -5.293763
     H  11.564467   6.688172  -7.114469
     H  10.044775   4.815172  -3.527874
     H  11.926731   5.238630  -5.103995
     H  -9.046400   1.467821   2.332813
     C -10.066070   1.427670   2.726793
     H -10.258690   0.409944   3.100163
     H -10.765651   1.628918   1.901943
     N -10.211400   2.409698   3.789979
     C -11.385296   2.514089   4.464457
     C  -9.097813   3.294126   4.103687
     C -12.503249   1.689181   4.138442
     C -11.550922   3.451491   5.521073
     H  -9.398566   4.349103   4.015047
     H  -8.279928   3.102979   3.402162
     H  -8.729894   3.125462   5.127578
     C -13.695460   1.812062   4.813987
     H -12.427561   0.951826   3.343517
     C -12.751007   3.551312   6.190695
     H -10.722749   4.088431   5.821634
     C -13.869453   2.747041   5.864625
     H -14.519958   1.158734   4.525873
     H -12.848386   4.268824   7.006731
     C -15.070153   2.873467   6.629852
     C -16.253030   2.206582   6.441742
     H -15.027283   3.568489   7.475414
     C -17.373098   2.380610   7.328022
     H -16.359026   1.519223   5.604898
     C -18.664886   1.717846   7.060226
     O -17.275643   3.120572   8.374069
     C -19.745294   1.921039   7.970863
     C -18.901913   0.895422   5.938397
     H -18.596533   3.005452   8.995663
     C -20.998162   1.338603   7.721498
     O -19.587896   2.674805   9.076603
     C -20.137649   0.310547   5.707336
     H -18.101504   0.698364   5.227006
     C -21.190791   0.542089   6.602464
     H -21.806162   1.545672   8.423171
     H -20.286470  -0.327328   4.836576
     H -22.168427   0.096130   6.412697
     C  -8.017649   0.310547   5.707336
     C  -9.070791   0.542089   6.602464
     C  -6.781913   0.895422   5.938397
     H  -8.166470  -0.327328   4.836576
     C  -8.878162   1.338603   7.721498
     H -10.048427   0.096130   6.412697
     C  -6.544886   1.717846   7.060226
     H  -5.981504   0.698364   5.227006
     C  -7.625294   1.921039   7.970863
     H  -9.686162   1.545672   8.423171
     C  -5.253098   2.380610   7.328022
     O  -7.467896   2.674805   9.076603
     C  -4.133031   2.206582   6.441742
     O  -5.155643   3.120572   8.374069
     H  -6.476533   3.005452   8.995663
     C  -2.950153   2.873467   6.629852
     H  -4.239027   1.519223   5.604898
     C  -1.749453   2.747041   5.864625
     H  -2.907283   3.568489   7.475414
     C  -1.575460   1.812062   4.813987
     C  -0.631007   3.551312   6.190695
     H  -2.399958   1.158734   4.525873
     C  -0.383249   1.689181   4.138442
     C   0.569078   3.451491   5.521073
     H  -0.728386   4.268824   7.006731
     C   0.734704   2.514089   4.464457
     H  -0.307561   0.951826   3.343517
     H   1.397251   4.088431   5.821634
     N   1.908600   2.409698   3.789979
     C   2.053930   1.427670   2.726793
     C   3.022187   3.294126   4.103687
     H   1.861310   0.409944   3.100163
     H   3.073600   1.467821   2.332813
     H   1.354349   1.628918   1.901943
     H   2.721434   4.349103   4.015047
     H   3.840072   3.102979   3.402162
     H   3.390106   3.125462   5.127578
     C  -0.682080   0.667905   8.348892
     H  -0.874700   1.685632   8.722263
     H   0.337590   0.627754   7.954913
     H  -1.381661   0.466657   7.524042
     N  -0.827410  -0.314123   9.412079
     C  -2.001306  -0.418513  10.086557
     C   0.286176  -1.198550   9.725786
     C  -3.119259   0.406395   9.760542
     C  -2.166932  -1.355916  11.143172
     H  -0.014576  -2.253528   9.637147
     H   1.104062  -1.007403   9.024262
     H   0.654096  -1.029886  10.749677
     C  -4.311470   0.283514  10.436087
     H  -3.043571   1.143750   8.965617
     C  -3.367018  -1.455737  11.812795
     H  -1.338759  -1.992856  11.443733
     C  -4.485463  -0.651465  11.486724
     H  -5.135968   0.936842  10.147972
     H  -3.464396  -2.173249  12.628831
     C  -5.686163  -0.777891  12.251952
     C  -6.869041  -0.111006  12.063841
     H  -5.643294  -1.472914  13.097514
     C  -7.989108  -0.285034  12.950122
     H  -6.975037   0.576352  11.226997
     C  -9.280897   0.377730  12.682326
     O  -7.891653  -1.024996  13.996169
     C -10.361304   0.174537  13.592963
     C  -9.517924   1.200154  11.560497
     H  -9.212543  -0.909877  14.617763
     C -11.614172   0.756973  13.343598
     O -10.203906  -0.579229  14.698703
     C -10.753660   1.785028  11.329435
     H  -8.717514   1.397210  10.849106
     C -11.806801   1.553487  12.224564
     H -12.422172   0.549903  14.045270
     H -10.902480   2.422904  10.458676
     H -12.784437   1.999446  12.034797
     C   7.230716   0.174537   2.348763
     C   5.977848   0.756973   2.099398
     C   8.311123   0.377730   1.438127
     O   7.388114  -0.579229   3.454503
     C   5.785219   1.553487   0.980364
     H   5.169849   0.549903   2.801070
     C   8.074096   1.200154   0.316297
     C   9.602912  -0.285034   1.705923
     H   8.379477  -0.909877   3.373563
     C   6.838360   1.785028   0.085236
     H   4.807583   1.999446   0.790597
     H   8.874506   1.397210  -0.395093
     C  10.722980  -0.111006   0.819642
     O   9.700367  -1.024996   2.751969
     H   6.689540   2.422904  -0.785524
     C  11.905857  -0.777891   1.007753
     H  10.616984   0.576352  -0.017203
     C  13.106557  -0.651465   0.242524
     H  11.948727  -1.472914   1.853314
     C  13.280550   0.283514  -0.808113
     C  14.225002  -1.455737   0.568595
     C  14.472762   0.406395  -1.483657
     H  12.456052   0.936842  -1.096227
     C  15.425088  -1.355916  -0.101027
     H  14.127624  -2.173249   1.384631
     C  15.590715  -0.418513  -1.157643
     H  14.548449   1.143750  -2.278582
     H  16.253261  -1.992856   0.199533
     N  16.764610  -0.314123  -1.832121
     C  16.909940   0.667905  -2.895307
     C  17.878196  -1.198550  -1.518413
     H  16.717320   1.685632  -2.521937
     H  17.929611   0.627754  -3.289287
     H  16.210359   0.466657  -3.720157
     H  17.577444  -2.253528  -1.607052
     H  18.696082  -1.007403  -2.219938
     H  18.246116  -1.029886  -0.494522
     C   8.713858   1.338603  -3.522702
     C   9.966726   1.921039  -3.273337
     C   8.521229   0.542089  -4.641736
     H   7.905859   1.545672  -2.821029
     C  11.047134   1.717846  -4.183973
     O  10.124124   2.674805  -2.167596
     C   9.574371   0.310547  -5.536863
     H   7.543593   0.096130  -4.831503
     C  10.810107   0.895422  -5.305803
     C  12.338922   2.380610  -3.916177
     H  11.115487   3.005452  -2.248536
     H   9.425550  -0.327328  -6.407624
     H  11.610516   0.698364  -6.017193
     C  13.458990   2.206582  -4.802457
     O  12.436377   3.120572  -2.870131
     C  14.641867   2.873467  -4.614347
     H  13.352994   1.519223  -5.639302
     C  15.842567   2.747041  -5.379575
     H  14.684738   3.568489  -3.768786
     C  16.016560   1.812062  -6.430213
     C  16.961013   3.551312  -5.053505
     H  15.192062   1.158734  -6.718326
     C  17.208772   1.689181  -7.105757
     C  18.161098   3.451491  -5.723126
     H  16.863634   4.268824  -4.237469
     C  18.326725   2.514089  -6.779743
     H  17.284459   0.951826  -7.900682
     H  18.989271   4.088431  -5.422566
     N  19.500620   2.409698  -7.454221
     C  19.645950   1.427670  -8.517407
     C  20.614207   3.294126  -7.140512
     H  19.453330   0.409944  -8.144036
     H  20.665620   1.467821  -8.911386
     H  18.946369   1.628918  -9.342257
     H  20.313454   4.349103  -7.229152
     H  21.432092   3.102979  -7.842038
     H  20.982126   3.125462  -6.116621
     C   4.494706   1.921039   7.970863
     C   3.241838   1.338603   7.721498
     C   5.575114   1.717846   7.060226
     O   4.652104   2.674805   9.076603
     C   3.049209   0.542089   6.602464
     H   2.433838   1.545672   8.423171
     C   5.338087   0.895422   5.938397
     C   6.866902   2.380610   7.328022
     H   5.643467   3.005452   8.995663
     C   4.102351   0.310547   5.707336
     H   2.071573   0.096130   6.412697
     H   6.138496   0.698364   5.227006
     C   7.986969   2.206582   6.441742
     O   6.964357   3.120572   8.374069
     H   3.953530  -0.327328   4.836576
     C   9.169847   2.873467   6.629852
     H   7.880973   1.519223   5.604898
     C  10.370546   2.747041   5.864625
     H   9.212717   3.568489   7.475414
     C  10.544540   1.812062   4.813987
     C  11.488993   3.551312   6.190695
     H   9.720042   1.158734   4.525873
     C  11.736751   1.689181   4.138442
     C  12.689078   3.451491   5.521073
     H  11.391614   4.268824   7.006731
     C  12.854704   2.514089   4.464457
     H  11.812439   0.951826   3.343517
     H  13.517251   4.088431   5.821634
     N  14.028600   2.409698   3.789979
     C  14.173930   1.427670   2.726793
     C  15.142187   3.294126   4.103687
     H  13.981310   0.409944   3.100163
     H  15.193600   1.467821   2.332813
     H  13.474349   1.628918   1.901943
     H  14.841433   4.349103   4.015047
     H  15.960072   3.102979   3.402162
     H  15.510106   3.125462   5.127578
