37
mol
 C                    -4.33833   1.08067  -0.51012 
 C                    -5.43568   0.29136  -0.88946 
 C                    -3.01975   0.53403  -0.52935 
 O                    -4.55591   2.35343  -0.12496 
 C                    -5.24654  -1.0172   -1.30861 
 H                    -6.42927   0.73536  -0.82852 
 C                    -2.87136  -0.79863  -0.96872 
 C                    -1.8927    1.37624  -0.08199 
 H                    -3.59626   2.68791   0.13169 
 C                    -3.95832  -1.56686  -1.35711 
 H                    -6.1045   -1.62621  -1.59789 
 H                    -1.88198  -1.25074  -1.01667 
 C                    -0.54484   0.87266  -0.08375 
 O                    -2.14766   2.5724    0.31228 
 H                    -3.80985  -2.5902   -1.70059 
 C                     0.50461   1.61043   0.39966 
 H                    -0.36594  -0.1217   -0.48779 
 C                     1.88922   1.25537   0.40152 
 H                     0.26302   2.59535   0.81371 
 C                     2.4057    0.08067  -0.19983 
 C                     2.83124   2.13888   0.98127 
 C                     3.75343  -0.1951   -0.21989 
 H                     1.72752  -0.63187  -0.671 
 C                     4.18417   1.87784   0.98084 
 H                     2.46598   3.06039   1.43693 
 C                     4.69469   0.69442   0.3796 
 H                     4.09168  -1.11029  -0.69879 
 H                     4.86209   2.59781   1.43246 
 N                     6.02445   0.41948   0.37838 
 C                     6.51853  -0.7896   -0.26182 
 C                     6.9646    1.31447   1.03855 
 H                     6.23192  -0.81919  -1.32448 
 H                     7.60997  -0.81602  -0.19375 
 H                     6.11782  -1.68999   0.22708 
 H                     6.69203   1.45874   2.09504 
 H                     7.96726   0.87845   0.99192 
 H                     6.98684   2.30111   0.55048 

