37
mol.init.xyz
     C   4.889283  -0.174536  -2.348763
     C   5.713299   8.004565   1.366002
     C   3.380024   8.383808   2.027274
     O   4.731885   0.579229  -3.454504
     C   5.905928   7.208051   2.485036
     H   6.521299   8.211634   0.664330
     C   3.617050   7.561384   3.149104
     C   2.088236   9.046572   1.759478
     H   3.740523   0.909877  -3.373564
     C   4.852786   6.976510   3.380164
     H   6.883564   6.762092   2.674804
     H   2.816640   7.364326   3.860494
     C   0.968167   8.872544   2.645758
     O   1.990780   9.786534   0.713431
     H   5.001608   6.338634   4.250925
     C  -0.214710   9.539428   2.457648
     H   1.074163   8.185185   3.482603
     C  -1.415409   9.413002   3.222876
     H  -0.257580  10.234452   1.612086
     C  -1.589403   8.478024   4.273514
     C  -2.105003   1.455737  -0.568596
     C  -2.352761  -0.406395   1.483657
     H  -0.764905   7.824696   4.561627
     C  -3.305088   1.355916   0.101027
     H  -2.007624   2.173249  -1.384631
     C  -3.470714   0.418513   1.157643
     H  -2.428449  -1.143751   2.278583
     H  -4.133261   1.992856  -0.199534
     N  -4.644610   0.314123   1.832121
     C  -4.789940  -0.667906   2.895307
     C  -5.758197   1.198550   1.518413
     H  -4.597320  -1.685631   2.521936
     H  -5.809610  -0.627754   3.289287
     H  -4.090359  -0.466658   3.720157
     H  -5.457443   2.253528   1.607053
     H  -6.576083   1.007403   2.219938
     H  -6.126116   1.029887   0.494522
