15
rl
     C  -0.257728  -1.000886   0.579750
     C   0.728974  -0.071607   1.341114
     C  -1.448487  -0.031975   0.368514
     C   0.422012  -0.899713  -0.852195
     H  -0.435642  -1.969863   0.991325
     C   1.175227   0.873418   0.433341
     H   1.096789  -0.096020   2.285525
     C  -1.102598   0.861691  -0.539261
     H  -2.577937  -0.259799   0.793439
     C   0.350124   0.695001  -0.931293
     H   1.369874  -1.497768  -0.915181
     H  -0.498761  -1.299816  -1.487122
     H   1.956108   1.706477   0.621442
     H  -1.824969   1.708367  -0.891355
     H   0.690675   1.153842  -1.957640
15
rl
     C  -0.259137  -1.004186   0.578728
     C   0.726032  -0.073016   1.341572
     C  -1.450195  -0.032915   0.371475
     C   0.423413  -0.894882  -0.852115
     H  -0.443502  -1.989193   0.983485
     C   1.175787   0.880703   0.429702
     H   1.114930  -0.095349   2.325156
     C  -1.104722   0.861990  -0.538337
     H  -2.535279  -0.256394   0.773882
     C   0.349667   0.690991  -0.926355
     H   1.353434  -1.505157  -0.931299
     H  -0.486111  -1.295115  -1.484517
     H   1.961493   1.689233   0.600423
     H  -1.813251   1.722674  -0.913629
     H   0.703929   1.141956  -1.969058
15
rl
     C  -0.260137  -1.006882   0.577620
     C   0.722257  -0.075728   1.342784
     C  -1.452611  -0.034847   0.375207
     C   0.423924  -0.890255  -0.852209
     H  -0.453085  -2.015613   0.978466
     C   1.176956   0.889646   0.424461
     H   1.135913  -0.096109   2.375014
     C  -1.107088   0.863455  -0.538160
     H  -2.491062  -0.251841   0.754526
     C   0.349898   0.686798  -0.921515
     H   1.341021  -1.513437  -0.948318
     H  -0.470483  -1.290704  -1.483361
     H   1.967375   1.672684   0.579454
     H  -1.799995   1.735999  -0.935488
     H   0.717004   1.130142  -1.977841
15
rl
     C  -0.260779  -1.009157   0.576482
     C   0.717922  -0.079607   1.345145
     C  -1.455372  -0.037672   0.379554
     C   0.423575  -0.885864  -0.852442
     H  -0.463916  -2.046827   0.975352
     C   1.178550   0.900001   0.417775
     H   1.157485  -0.098093   2.429071
     C  -1.109668   0.866088  -0.538740
     H  -2.449453  -0.247014   0.736972
     C   0.350825   0.682494  -0.916890
     H   1.332919  -1.522602  -0.966104
     H  -0.452714  -1.286726  -1.484064
     H   1.974969   1.657896   0.558752
     H  -1.785095   1.747854  -0.956540
     H   0.729487   1.118190  -1.983202
15
rl
     C  -0.261115  -1.011236   0.575393
     C   0.713286  -0.084506   1.348943
     C  -1.458031  -0.041208   0.384256
     C   0.422451  -0.881759  -0.852773
     H  -0.475464  -2.080236   0.973159
     C   1.180389   0.911512   0.409820
     H   1.177796  -0.101143   2.482437
     C  -1.112452   0.869818  -0.540026
     H  -2.415575  -0.243008   0.723154
     C   0.352452   0.678151  -0.912583
     H   1.328996  -1.532377  -0.984458
     H  -0.433789  -1.283363  -1.487103
     H   1.985495   1.645849   0.538475
     H  -1.768614   1.757945  -0.976486
     H   0.741033   1.105988  -1.984609
15
rl
     C  -0.261201  -1.013342   0.574420
     C   0.708572  -0.090250   1.354333
     C  -1.460124  -0.045253   0.389042
     C   0.420680  -0.878002  -0.853164
     H  -0.487190  -2.113342   0.970988
     C   1.182307   0.923925   0.400800
     H   1.195502  -0.105152   2.531565
     C  -1.115419   0.874542  -0.541945
     H  -2.394740  -0.240979   0.715007
     C   0.354763   0.673838  -0.908678
     H   1.328742  -1.542235  -1.003110
     H  -0.414767  -1.280822  -1.492974
     H   1.999983   1.637273   0.518709
     H  -1.750756   1.766166  -0.995118
     H   0.751388   1.093521  -1.981800
15
rl
     C  -0.261092  -1.015671   0.573618
     C   0.703970  -0.096652   1.361359
     C  -1.461294  -0.049614   0.393678
     C   0.418414  -0.874674  -0.853582
     H  -0.498604  -2.143997   0.968111
     C   1.184168   0.937015   0.390940
     H   1.209699  -0.110059   2.574054
     C  -1.118535   0.880130  -0.544408
     H  -2.390994  -0.241814   0.713956
     C   0.357723   0.669615  -0.905240
     H   1.331397  -1.551475  -1.021723
     H  -0.396677  -1.279300  -1.502125
     H   2.019083   1.632494   0.499449
     H  -1.731847   1.772600  -1.012327
     H   0.760398   1.080860  -1.974779
15
rl
     C  -0.260834  -1.018386   0.573021
     C   0.699640  -0.103525   1.369990
     C  -1.461431  -0.054148   0.398020
     C   0.415812  -0.871861  -0.854006
     H  -0.509286  -2.170504   0.963992
     C   1.185890   0.950597   0.380474
     H   1.219819  -0.115830   2.608378
     C  -1.121750   0.886436  -0.547320
     H  -2.405538  -0.245790   0.720382
     C   0.361281   0.665534  -0.902313
     H   1.336082  -1.559325  -1.039911
     H  -0.380398  -1.278935  -1.514885
     H   2.042907   1.631355   0.480604
     H  -1.712312   1.777508  -1.028108
     H   0.768012   1.068161  -1.963826
15
rl
     C  -0.260465  -1.021611   0.572651
     C   0.695707  -0.110689   1.380141
     C  -1.460719  -0.058769   0.402031
     C   0.413015  -0.869654  -0.854433
     H  -0.518895  -2.191626   0.958275
     C   1.187446   0.964537   0.369638
     H   1.225546  -0.122454   2.633654
     C  -1.125004   0.893302  -0.550581
     H  -2.436168  -0.252474   0.733479
     C   0.365365   0.661636  -0.899917
     H   1.341919  -1.565037  -1.057265
     H  -0.366553  -1.279766  -1.531378
     H   2.070985   1.633240   0.462012
     H  -1.692656   1.781311  -1.042552
     H   0.774287   1.055660  -1.949492
15
rl
     C  -0.260010  -1.025431   0.572515
     C   0.692274  -0.117979   1.391688
     C  -1.459554  -0.063437   0.405752
     C   0.410136  -0.868145  -0.854879
     H  -0.527170  -2.206547   0.950762
     C   1.188863   0.978745   0.358663
     H   1.226739  -0.129930   2.649457
     C  -1.128223   0.900560  -0.554090
     H  -2.478234  -0.260957   0.751598
     C   0.369888   0.657949  -0.898052
     H   1.348119  -1.567964  -1.073386
     H  -0.355436  -1.281692  -1.551459
     H   2.102345   1.637201   0.443470
     H  -1.673428   1.784555  -1.055838
     H   0.779394   1.043671  -1.932598
15
rl
     C  -0.259486  -1.029896   0.572612
     C   0.689413  -0.125251   1.404489
     C  -1.458400  -0.068122   0.409257
     C   0.407253  -0.867418  -0.855384
     H  -0.533928  -2.214838   0.941391
     C   1.190208   0.993161   0.347769
     H   1.223383  -0.138264   2.655681
     C  -1.131332   0.908042  -0.557743
     H  -2.526294  -0.270204   0.772818
     C   0.374751   0.654489  -0.896690
     H   1.354031  -1.567608  -1.087899
     H  -0.347010  -1.284469  -1.574688
     H   2.135680   1.642133   0.424771
     H  -1.655192   1.787871  -1.068210
     H   0.783612   1.032579  -1.914225
