296
boo.xyz
     C  -4.460431  -8.587001  -1.116637
     C  -5.713299  -8.004565  -1.366002
     C  -4.852787  -6.976509  -3.380165
     C  -3.380024  -8.383808  -2.027274
     H  -6.521299  -8.211635  -0.664330
     O  -1.990780  -9.786534  -0.713431
     H  -3.311670  -9.671414  -0.091837
     O  -4.303033  -9.340767  -0.010897
     C  -5.905928  -7.208051  -2.485036
     H  -6.883564  -6.762092  -2.674803
     C  -3.617051  -7.561384  -3.149103
     H  -5.001607  -6.338634  -4.250924
     C  -2.088235  -9.046572  -1.759477
     H  -2.816641  -7.364327  -3.860494
     C  -0.968168  -8.872544  -2.645759
     C   0.214710  -9.539429  -2.457648
     H  -1.074164  -8.185185  -3.482603
     C   1.415410  -9.413003  -3.222876
     H   0.257579 -10.234451  -1.612086
     C   1.589403  -8.478024  -4.273513
     C   2.533855 -10.217274  -2.896805
     H   0.764905  -7.824696  -4.561628
     H   2.436477 -10.934786  -2.080769
     C   2.781614  -8.355143  -4.949058
     C   3.899567  -9.180051  -4.623043
     C   3.733941 -10.117453  -3.566428
     H   2.857302  -7.617788  -5.743983
     H   4.562114 -10.754393  -3.265867
     C   5.218793  -8.093632  -6.360708
     N   5.073463  -9.075660  -5.297521
     C   6.187049  -9.960088  -4.983814
     H   5.026173  -7.075906  -5.987337
     H   6.238463  -8.133783  -6.754687
     H   4.519212  -8.294881  -7.185558
     H   5.886297 -11.015065  -5.072452
     H   7.004935  -9.768941  -5.685338
     H   6.554969  -9.791424  -3.959923
     C  -0.045604  -3.212643  -0.673042
     C  -1.163557  -4.037551  -0.999057
     C  -0.997931  -4.974953  -2.055672
     C   0.202155  -5.074774  -2.725295
     H  -0.121291  -2.475288   0.121883
     N  -2.337452  -3.933160  -0.324579
     C  -2.482782  -2.951131   0.738607
     C   1.320601  -4.270503  -2.399224
     C   1.146608  -3.335524  -1.348586
     H   1.971105  -2.682196  -1.060472
     C  -3.451039  -4.817588  -0.638286
     H  -1.826104  -5.611893  -2.356233
     H   0.299534  -5.792287  -3.541330
     C   2.521300  -4.396929  -3.164451
     H  -3.150286  -5.872565  -0.549647
     H  -3.818958  -4.648925  -1.662177
     H  -2.290162  -1.933406   0.365237
     H  -3.502453  -2.991283   1.132588
     H  -1.783201  -3.152381   1.563457
     C   3.704177  -3.730044  -2.976341
     H   2.478430  -5.091951  -4.010014
     H  -4.268925  -4.626441   0.063239
     C   4.824246  -3.904072  -3.862622
     H   3.810173  -3.042685  -2.139497
     C   6.353060  -2.418884  -2.472996
     C   6.116034  -3.241308  -3.594826
     O   4.726790  -4.644034  -4.908669
     C   7.196441  -3.444502  -4.505463
     H   6.047681  -4.528914  -5.530262
     H   5.552651  -2.221827  -1.761605
     C   8.449310  -2.862065  -4.256098
     C   8.641937  -2.065551  -3.137064
     C   7.588797  -1.834009  -2.241935
     H   7.737617  -1.196134  -1.371176
     O   7.039043  -4.198267  -5.611204
     H   9.257308  -3.069135  -4.957770
     H   9.619574  -1.619592  -2.947297
     C  -7.196442  -6.840499   4.505462
     C  -8.449309  -7.422935   4.256097
     C  -8.641938  -8.219449   3.137063
     C  -7.588796  -8.450990   2.241936
     C  -6.353060  -7.866116   2.472996
     C  -6.116034  -7.043692   3.594826
     C  -4.824246  -6.380928   3.862622
     H  -9.257309  -7.215866   4.957770
     H  -6.047680  -5.756085   5.530263
     O  -7.039043  -6.086733   5.611203
     O  -4.726790  -5.640966   4.908668
     H  -9.619575  -8.665408   2.947296
     H  -7.737618  -9.088866   1.371175
     H  -5.552651  -8.063173   1.761606
     C  -3.704178  -6.554956   2.976342
     C  -2.521300  -5.888071   3.164452
     H  -3.810174  -7.242315   2.139497
     C  -1.320601  -6.014497   2.399224
     H  -2.478430  -5.193048   4.010013
     C  -1.146607  -6.949476   1.348586
     C  -0.202155  -5.210226   2.725294
     H  -1.971105  -7.602804   1.060473
     C   0.045604  -7.072357   0.673042
     C   1.163557  -6.247449   0.999056
     C   0.997930  -5.310047   2.055673
     H  -0.299533  -4.492713   3.541330
     H   0.121292  -7.809712  -0.121883
     H   1.826104  -4.673106   2.356233
     C   2.482783  -7.333867  -0.738608
     N   2.337452  -6.351839   0.324578
     C   3.451039  -5.467412   0.638287
     H   2.290163  -8.351594  -0.365237
     H   3.502452  -7.293717  -1.132587
     H   1.783202  -7.132620  -1.563458
     H   3.150286  -4.412434   0.549647
     H   4.268925  -5.658559  -0.063239
     H   3.818959  -5.636076   1.662178
     C  -2.781614  -1.929857   4.949057
     C  -3.899567  -1.104949   4.623044
     C  -2.533855  -0.067726   2.896805
     H  -2.857302  -2.667213   5.743983
     N  -5.073462  -1.209339   5.297522
     C  -1.415409  -0.871998   3.222876
     C  -1.589403  -1.806976   4.273514
     H  -0.764905  -2.460304   4.561627
     C  -3.733940  -0.167547   3.566427
     C  -6.187049  -0.324912   4.983813
     H  -4.562114   0.469394   3.265867
     H  -2.436476   0.649787   2.080770
     C  -0.214710  -0.745572   2.457648
     C  -5.218792  -2.191368   6.360707
     H  -5.026172  -3.209094   5.987337
     H  -4.519211  -1.990120   7.185557
     H  -7.004935  -0.516059   5.685339
     H  -5.886296   0.730066   5.072453
     C   0.968167  -1.412456   2.645758
     H  -0.257580  -0.050548   1.612086
     H  -6.554969  -0.493575   3.959922
     C   2.088236  -1.238428   1.759478
     H   1.074163  -2.099815   3.482603
     H  -6.238463  -2.151217   6.754688
     C   3.617050  -2.723616   3.149104
     C   3.380024  -1.901192   2.027274
     O   1.990780  -0.498466   0.713431
     H   3.311671  -0.613585   0.091837
     C   4.460431  -1.697998   1.116638
     H   2.816640  -2.920673   3.860494
     C   5.713299  -2.280435   1.366002
     C   5.905928  -3.076949   2.485036
     C   4.852786  -3.308490   3.380164
     H   5.001608  -3.946366   4.250925
     O   4.303032  -0.944233   0.010896
     H   6.521299  -2.073366   0.664330
     H   6.883564  -3.522908   2.674804
     C  -4.460431   1.697999  -1.116637
     C  -5.713299   2.280435  -1.366002
     C  -4.852787   3.308490  -3.380165
     C  -3.380024   1.901192  -2.027274
     H  -6.521299   2.073365  -0.664330
     O  -1.990780   0.498466  -0.713431
     H  -3.311670   0.613585  -0.091837
     O  -4.303033   0.944233  -0.010897
     C  -5.905928   3.076949  -2.485036
     H  -6.883564   3.522908  -2.674803
     C  -3.617051   2.723616  -3.149103
     H  -5.001607   3.946366  -4.250924
     C  -2.088235   1.238428  -1.759477
     H  -2.816641   2.920673  -3.860494
     C  -0.968168   1.412456  -2.645759
     C   0.214710   0.745571  -2.457648
     H  -1.074164   2.099815  -3.482603
     C   1.415410   0.871997  -3.222876
     H   0.257579   0.050548  -1.612086
     C   1.589403   1.806976  -4.273513
     C   2.533855   0.067726  -2.896805
     H   0.764905   2.460304  -4.561628
     H   2.436477  -0.649787  -2.080769
     C   2.781614   1.929857  -4.949058
     C   3.899567   1.104949  -4.623043
     C   3.733941   0.167547  -3.566428
     H   2.857302   2.667212  -5.743983
     H   4.562114  -0.469393  -3.265867
     C   5.218793   2.191367  -6.360708
     N   5.073463   1.209340  -5.297521
     C   6.187049   0.324912  -4.983814
     H   5.026173   3.209094  -5.987337
     H   6.238463   2.151217  -6.754687
     H   4.519212   1.990119  -7.185558
     H   5.886297  -0.730065  -5.072452
     H   7.004935   0.516059  -5.685338
     H   6.554969   0.493576  -3.959923
     C  -0.045604   7.072357  -0.673042
     C  -1.163557   6.247449  -0.999057
     C  -0.997931   5.310047  -2.055672
     C   0.202155   5.210226  -2.725295
     H  -0.121291   7.809712   0.121883
     N  -2.337452   6.351840  -0.324579
     C  -2.482782   7.333868   0.738607
     C   1.320601   6.014497  -2.399224
     C   1.146608   6.949476  -1.348586
     H   1.971105   7.602804  -1.060472
     C  -3.451039   5.467412  -0.638286
     H  -1.826104   4.673106  -2.356233
     H   0.299534   4.492713  -3.541330
     C   2.521300   5.888071  -3.164451
     H  -3.150286   4.412434  -0.549647
     H  -4.268925   5.658559   0.063239
     H  -3.818958   5.636075  -1.662177
     H  -2.290162   8.351594   0.365237
     H  -3.502453   7.293717   1.132588
     H  -1.783201   7.132619   1.563457
     C   3.704177   6.554956  -2.976341
     H   2.478430   5.193048  -4.010014
     C   4.824246   6.380928  -3.862622
     H   3.810173   7.242315  -2.139497
     C   6.353060   7.866116  -2.472996
     C   6.116034   7.043692  -3.594826
     O   4.726790   5.640966  -4.908669
     C   7.196441   6.840498  -4.505463
     H   6.047681   5.756085  -5.530262
     H   5.552651   8.063173  -1.761605
     C   8.449310   7.422935  -4.256098
     C   8.641937   8.219449  -3.137064
     C   7.588797   8.450990  -2.241935
     H   7.737617   9.088866  -1.371176
     O   7.039043   6.086733  -5.611204
     H   9.257308   7.215865  -4.957770
     H   9.619574   8.665408  -2.947297
     C  -7.196442   3.444501   4.505462
     C  -8.449309   2.862065   4.256097
     C  -8.641938   2.065551   3.137063
     C  -7.588796   1.834010   2.241936
     C  -6.353060   2.418884   2.472996
     C  -6.116034   3.241308   3.594826
     C  -4.824246   3.904072   3.862622
     H  -9.257309   3.069134   4.957770
     H  -6.047680   4.528915   5.530263
     O  -7.039043   4.198267   5.611203
     O  -4.726790   4.644034   4.908668
     H  -9.619575   1.619592   2.947296
     H  -7.737618   1.196134   1.371175
     H  -5.552651   2.221826   1.761606
     C  -3.704178   3.730044   2.976342
     C  -2.521300   4.396929   3.164452
     H  -3.810174   3.042685   2.139497
     C  -1.320601   4.270503   2.399224
     H  -2.478430   5.091952   4.010013
     C  -1.146607   3.335524   1.348586
     C  -0.202155   5.074774   2.725294
     H  -1.971105   2.682196   1.060473
     C   0.045604   3.212643   0.673042
     C   1.163557   4.037551   0.999056
     C   0.997930   4.974953   2.055673
     H  -0.299533   5.792287   3.541330
     H   0.121292   2.475288  -0.121883
     H   1.826104   5.611894   2.356233
     C   2.482783   2.951133  -0.738608
     N   2.337452   3.933160   0.324578
     C   3.451039   4.817588   0.638287
     H   2.290163   1.933406  -0.365237
     H   1.783202   3.152380  -1.563458
     H   3.502452   2.991283  -1.132587
     H   3.150286   5.872566   0.549647
     H   4.268925   4.626441  -0.063239
     H   3.818959   4.648924   1.662178
     C  -2.781614   8.355143   4.949057
     C  -3.899567   9.180051   4.623044
     C  -2.533855  10.217274   2.896805
     H  -2.857302   7.617787   5.743983
     N  -5.073462   9.075660   5.297522
     C  -1.415409   9.413002   3.222876
     C  -1.589403   8.478024   4.273514
     H  -0.764905   7.824696   4.561627
     C  -3.733940  10.117453   3.566427
     C  -6.187049   9.960088   4.983813
     H  -4.562114  10.754393   3.265867
     H  -2.436476  10.934787   2.080770
     C  -0.214710   9.539428   2.457648
     C  -5.218792   8.093632   6.360707
     H  -5.026172   7.075906   5.987337
     H  -4.519211   8.294880   7.185557
     H  -6.554969   9.791425   3.959922
     H  -5.886296  11.015065   5.072453
     C   0.968167   8.872544   2.645758
     H  -0.257580  10.234452   1.612086
     H  -7.004935   9.768941   5.685339
     C   2.088236   9.046572   1.759478
     H   1.074163   8.185185   3.482603
     H  -6.238463   8.133783   6.754688
     C   3.617050   7.561384   3.149104
     C   3.380024   8.383808   2.027274
     O   1.990780   9.786534   0.713431
     H   3.311671   9.671415   0.091837
     C   4.460431   8.587002   1.116638
     H   2.816640   7.364326   3.860494
     C   5.713299   8.004565   1.366002
     C   5.905928   7.208051   2.485036
     C   4.852786   6.976510   3.380164
     H   5.001608   6.338634   4.250925
     O   4.303032   9.340767   0.010896
     H   6.521299   8.211634   0.664330
     H   6.883564   6.762092   2.674804
