48
go.xyz
     C   5.073941  -3.289000  -4.951130
     H   4.845851  -2.336800  -4.788610
     C   4.486611  -4.120680   0.846030
     C   4.853141   3.749920   0.753740
     H   3.862111  -3.864000   0.307650
     C  -1.430439   3.289000   1.607130
     H   4.445071   3.164800   0.207330
     C  -0.843109   4.120680  -4.190030
     H  -1.202359   2.336800   1.444610
     C  -1.209639  -3.749920  -4.097740
     H  -0.218609   3.864000  -3.651650
     H  -0.801569  -3.164800  -3.551330
     C   2.213061   3.289000  -1.607130
     H   2.441141   2.336800  -1.444610
     C   1.209641   3.749920  -0.753740
     C   2.800391   4.120680  -2.497970
     H   0.801571   3.164800  -0.207330
     C   0.843111  -4.120680  -0.846030
     C   2.433861  -3.749920  -2.590260
     H   3.424891   3.864000  -3.036350
     C   1.430441  -3.289000  -1.736870
     H   0.218611  -3.864000  -0.307650
     H   2.841931  -3.164800  -3.136670
     H   1.202351  -2.336800  -1.899390
     C  -1.430439   1.311000  -1.736870
     C   2.433861  -0.850080   0.753740
     H  -1.202359   2.263200  -1.899390
     C  -0.843109   0.479320  -0.846030
     C  -2.800389  -0.479320  -2.497970
     H  -0.218609   0.736000  -0.307650
     C   1.430441  -1.311000   1.607130
     C   0.843111  -0.479320   2.497970
     C   2.800391   0.479320   0.846030
     C   2.213061   1.311000   1.736870
     C  -2.433859   0.850080  -2.590260
     C  -1.209639  -0.850080  -0.753740
     H  -0.801569  -1.435200  -0.207330
     H  -2.841929   1.435200  -3.136670
     H  -3.424889  -0.736000  -3.036350
     H   1.202351  -2.263200   1.444610
     C   1.209641   0.850080   2.590260
     H   0.218611  -0.736000   3.036350
     H   0.801571   1.435200   3.136670
     H   2.841931  -1.435200   0.207330
     H   2.441141   2.263200   1.899390
     H   3.424891   0.736000   0.307650
     C  -2.213059  -1.311000  -1.607130
     H  -2.441149  -2.263200  -1.444610
