148
mol.init.xyz
     C  -7.196442   1.697999   4.505462
     C  -8.449309   2.280435   4.256097
     C  -6.116035   1.901192   3.594826
     O  -7.039043   0.944233   5.611203
     H  -6.047681   0.613585   5.530262
     C  -8.641938   3.076949   3.137063
     H  -9.257309   2.073365   4.957769
     C  -6.353061   2.723616   2.472996
     C  -4.824246   1.238428   3.862622
     O  -4.726791   0.498466   4.908668
     C  -7.588797   3.308490   2.241935
     H  -9.619575   3.522908   2.947296
     H  -5.552651   2.920672   1.761606
     C  -3.704178   1.412456   2.976341
     H  -7.737618   3.946366   1.371175
     C  -2.521301   0.745571   3.164452
     H  -3.810174   2.099815   2.139496
     C  -1.320601   0.871997   2.399223
     H  -2.478431   0.050548   4.010013
     C  -1.146607   1.806976   1.348586
     C  -0.202156   0.067726   2.725294
     C   0.045604   1.929857   0.673042
     H  -1.971106   2.460304   1.060472
     C   0.997930   0.167547   2.055672
     H  -0.299534  -0.649787   3.541330
     C   1.163557   1.104949   0.999056
     H   0.121292   2.667212  -0.121883
     H   1.826104  -0.469394   2.356232
     N   2.337452   1.209339   0.324578
     C   2.482782   2.191367  -0.738608
     C   3.451038   0.324912   0.638286
     H   2.290162   3.209094  -0.365238
     H   3.502453   2.151217  -1.132588
     H   1.783201   1.990119  -1.563458
     H   3.150286  -0.730066   0.549647
     H   4.268924   0.516059  -0.063239
     H   3.818959   0.493576   1.662177
     C   7.196441  -1.697998  -4.505462
     C   8.449309  -2.280435  -4.256098
     C   6.116034  -1.901192  -3.594826
     O   7.039042  -0.944233  -5.611204
     H   6.047681  -0.613585  -5.530263
     C   8.641938  -3.076949  -3.137064
     H   9.257309  -2.073366  -4.957770
     C   6.353060  -2.723616  -2.472996
     C   4.824246  -1.238428  -3.862622
     O   4.726789  -0.498466  -4.908669
     C   7.588796  -3.308490  -2.241936
     H   9.619574  -3.522908  -2.947296
     H   5.552650  -2.920674  -1.761606
     C   3.704177  -1.412456  -2.976342
     H   7.737618  -3.946366  -1.371175
     C   2.521299  -0.745572  -3.164452
     H   3.810173  -2.099815  -2.139497
     C   1.320601  -0.871998  -2.399224
     H   2.478430  -0.050548  -4.010014
     C   1.146607  -1.806976  -1.348586
     C   0.202155  -0.067726  -2.725295
     C  -0.045604  -1.929857  -0.673043
     H   1.971104  -2.460304  -1.060473
     C  -0.997930  -0.167547  -2.055673
     H   0.299533   0.649787  -3.541330
     C  -1.163557  -1.104949  -0.999056
     H  -0.121292  -2.667213   0.121883
     H  -1.826104   0.469393  -2.356233
     N  -2.337452  -1.209340  -0.324578
     C  -2.482782  -2.191368   0.738607
     C  -3.451039  -0.324912  -0.638287
     H  -2.290162  -3.209094   0.365237
     H  -3.502453  -2.151217   1.132588
     H  -1.783201  -1.990120   1.563457
     H  -3.150286   0.730065  -0.549647
     H  -4.268926  -0.516059   0.063239
     H  -3.818959  -0.493575  -1.662178
     C   4.460431  -3.444502   1.116637
     C   5.713299  -2.862065   1.366002
     C   3.380024  -3.241308   2.027273
     O   4.303033  -4.198267   0.010896
     H   3.311670  -4.528915   0.091837
     C   5.905927  -2.065551   2.485036
     H   6.521298  -3.069135   0.664330
     C   3.617050  -2.418884   3.149104
     C   2.088236  -3.904072   1.759478
     O   1.990779  -4.644034   0.713431
     C   4.852786  -1.834010   3.380164
     H   6.883564  -1.619592   2.674803
     H   2.816640  -2.221827   3.860494
     C   0.968167  -3.730044   2.645758
     H   5.001607  -1.196134   4.250924
     C  -0.214711  -4.396929   2.457648
     H   1.074163  -3.042685   3.482603
     C  -1.415409  -4.270503   3.222876
     H  -0.257580  -5.091952   1.612086
     C  -1.589403  -3.335524   4.273514
     C  -2.533855  -5.074774   2.896805
     C  -2.781614  -3.212643   4.949057
     H  -0.764906  -2.682196   4.561627
     C  -3.733941  -4.974953   3.566427
     H  -2.436477  -5.792287   2.080770
     C  -3.899567  -4.037551   4.623043
     H  -2.857302  -2.475288   5.743982
     H  -4.562115  -5.611894   3.265867
     N  -5.073462  -3.933160   5.297521
     C  -5.218793  -2.951132   6.360707
     C  -6.187049  -4.817588   4.983813
     H  -5.026173  -1.933406   5.987336
     H  -6.238463  -2.991283   6.754687
     H  -4.519212  -3.152381   7.185557
     H  -5.886296  -5.872566   5.072452
     H  -7.004936  -4.626441   5.685339
     H  -6.554969  -4.648925   3.959922
     C  -4.460432   3.444501  -1.116638
     C  -5.713299   2.862065  -1.366003
     C  -3.380024   3.241308  -2.027274
     O  -4.303033   4.198267  -0.010897
     H  -3.311670   4.528914  -0.091837
     C  -5.905928   2.065551  -2.485037
     H  -6.521299   3.069134  -0.664330
     C  -3.617050   2.418884  -3.149104
     C  -2.088236   3.904072  -1.759478
     O  -1.990781   4.644034  -0.713432
     C  -4.852786   1.834009  -3.380164
     H  -6.883565   1.619592  -2.674804
     H  -2.816641   2.221826  -3.860494
     C  -0.968168   3.730044  -2.645758
     H  -5.001608   1.196134  -4.250925
     C   0.214709   4.396929  -2.457648
     H  -1.074164   3.042685  -3.482603
     C   1.415409   4.270503  -3.222876
     H   0.257580   5.091951  -1.612087
     C   1.589403   3.335524  -4.273514
     C   2.533855   5.074774  -2.896806
     C   2.781614   3.212643  -4.949058
     H   0.764904   2.682196  -4.561627
     C   3.733940   4.974953  -3.566427
     H   2.436476   5.792287  -2.080770
     C   3.899567   4.037551  -4.623044
     H   2.857302   2.475288  -5.743983
     H   4.562114   5.611893  -3.265867
     N   5.073462   3.933160  -5.297522
     C   5.218793   2.951132  -6.360708
     C   6.187049   4.817588  -4.983813
     H   5.026173   1.933406  -5.987337
     H   6.238462   2.991283  -6.754687
     H   4.519212   3.152380  -7.185558
     H   5.886296   5.872565  -5.072453
     H   7.004934   4.626441  -5.685339
     H   6.554969   4.648924  -3.959922
