74
hi.xyz
     C  -7.196442   1.697999   4.505462
     C   4.460431  -3.444502   1.116637
     C  -8.449309   2.280435   4.256097
     O  -7.039043   0.944233   5.611203
     C  -8.641938   3.076949   3.137063
     C  -6.353061   2.723616   2.472996
     C   5.713299  -2.862065   1.366002
     O   4.303033  -4.198267   0.010896
     C   5.905927  -2.065551   2.485036
     C   3.617050  -2.418884   3.149104
     C  -6.116035   1.901192   3.594826
     H  -9.257309   2.073365   4.957769
     C  -7.588797   3.308490   2.241935
     H  -6.047681   0.613585   5.530262
     H  -9.619575   3.522908   2.947296
     H  -7.737618   3.946366   1.371175
     C  -4.824246   1.238428   3.862622
     H  -5.552651   2.920672   1.761606
     C   3.380024  -3.241308   2.027273
     H   6.521298  -3.069135   0.664330
     C   4.852786  -1.834010   3.380164
     H   3.311670  -4.528915   0.091837
     H   6.883564  -1.619592   2.674803
     H   5.001607  -1.196134   4.250924
     C   2.088236  -3.904072   1.759478
     H   2.816640  -2.221827   3.860494
     O  -4.726791   0.498466   4.908668
     C  -3.704178   1.412456   2.976341
     H  -3.810174   2.099815   2.139496
     O   1.990779  -4.644034   0.713431
     C   0.968167  -3.730044   2.645758
     H   1.074163  -3.042685   3.482603
     C  -2.521301   0.745571   3.164452
     H  -2.478431   0.050548   4.010013
     C  -0.214711  -4.396929   2.457648
     H  -0.257580  -5.091952   1.612086
     C  -1.320601   0.871997   2.399223
     C  -0.202156   0.067726   2.725294
     C  -1.415409  -4.270503   3.222876
     C  -2.533855  -5.074774   2.896805
     C  -1.146607   1.806976   1.348586
     H  -1.971106   2.460304   1.060472
     H  -0.299534  -0.649787   3.541330
     C   0.045604   1.929857   0.673042
     C   1.163557   1.104949   0.999056
     H   1.826104  -0.469394   2.356232
     C  -1.589403  -3.335524   4.273514
     H  -0.764906  -2.682196   4.561627
     H  -2.436477  -5.792287   2.080770
     C  -2.781614  -3.212643   4.949057
     C  -3.899567  -4.037551   4.623043
     H  -4.562115  -5.611894   3.265867
     C   0.997930   0.167547   2.055672
     H   0.121292   2.667212  -0.121883
     N   2.337452   1.209339   0.324578
     C   3.451038   0.324912   0.638286
     C  -3.733941  -4.974953   3.566427
     H  -2.857302  -2.475288   5.743982
     N  -5.073462  -3.933160   5.297521
     C  -6.187049  -4.817588   4.983813
     C   2.482782   2.191367  -0.738608
     H   3.502453   2.151217  -1.132588
     H   3.150286  -0.730066   0.549647
     H   3.818959   0.493576   1.662177
     H   4.268924   0.516059  -0.063239
     C  -5.218793  -2.951132   6.360707
     H  -6.238463  -2.991283   6.754687
     H  -5.886296  -5.872566   5.072452
     H  -6.554969  -4.648925   3.959922
     H  -7.004936  -4.626441   5.685339
     H   2.290162   3.209094  -0.365238
     H   1.783201   1.990119  -1.563458
     H  -5.026173  -1.933406   5.987336
     H  -4.519212  -3.152381   7.185557
