148
out_cell.xyz
     C   0.587141   0.334905   0.400692
     C   0.473757   0.278276   0.378515
     C   0.639719   0.315149   0.319705
     O   0.644527   0.408193   0.499031
     C   0.412931   0.200831   0.278994
     H   0.435264   0.298409   0.440918
     C   0.575118   0.235186   0.219935
     C   0.757055   0.379589   0.343521
     C   0.463882   0.178319   0.199386
     H   0.324648   0.157471   0.262117
     H   0.612594   0.216026   0.156668
     C   0.813883   0.362668   0.264700
     O   0.807098   0.451535   0.436551
     H   0.416639   0.116299   0.121945
     C   0.919034   0.427509   0.281430
     H   0.771536   0.295837   0.190276
     C   0.987375   0.415217   0.213374
     H   0.956523   0.495085   0.356629
     C   0.959545   0.324310   0.119936
     C   0.092749   0.493415   0.242373
     C   0.030787   0.312362   0.059857
     H   0.879949   0.260787   0.094313
     C   0.164879   0.483710   0.182821
     H   0.117481   0.563178   0.314947
     C   0.136118   0.392567   0.088851
     H   0.005114   0.240670   0.989160
     H   0.245278   0.545639   0.209551
     N   0.205892   0.382417   0.028866
     C   0.175193   0.286936   0.934312
     C   0.310368   0.468409   0.056766
     H   0.174292   0.187983   0.967518
     H   0.243505   0.290839   0.899274
     H   0.084352   0.306503   0.860954
     H   0.281995   0.570984   0.048883
     H   0.349682   0.449824   0.994376
     H   0.381837   0.452010   0.147825
     C   0.412859   0.665095   0.599308
     C   0.526243   0.721724   0.621485
     C   0.360281   0.684851   0.680295
     O   0.355473   0.591807   0.500969
     C   0.587069   0.799169   0.721006
     H   0.564736   0.701591   0.559082
     C   0.424882   0.764814   0.780065
     C   0.242945   0.620411   0.656479
     C   0.536118   0.821681   0.800614
     H   0.675352   0.842529   0.737883
     H   0.387406   0.783974   0.843332
     C   0.186117   0.637332   0.735300
     O   0.192902   0.548465   0.563449
     H   0.583361   0.883701   0.878055
     C   0.080966   0.572491   0.718570
     H   0.228464   0.704163   0.809724
     C   0.012625   0.584783   0.786626
     H   0.043477   0.504915   0.643370
     C   0.040455   0.675690   0.880064
     C   0.907251   0.506585   0.757627
     C   0.969213   0.687638   0.940143
     H   0.120051   0.739213   0.905687
     C   0.835121   0.516290   0.817179
     H   0.882520   0.436822   0.685053
     C   0.863882   0.607433   0.911149
     H   0.994886   0.759330   0.010840
     H   0.754722   0.454361   0.790449
     N   0.794108   0.617583   0.971134
     C   0.824807   0.713064   0.065688
     C   0.689632   0.531591   0.943234
     H   0.825708   0.812017   0.032482
     H   0.756495   0.709161   0.100726
     H   0.915648   0.693497   0.139046
     H   0.718006   0.429016   0.951117
     H   0.650318   0.550176   0.005624
     H   0.618163   0.547990   0.852175
     C   0.412859   0.834905   0.099308
     C   0.526243   0.778276   0.121485
     C   0.360281   0.815149   0.180295
     O   0.355473   0.908193   0.000969
     C   0.587069   0.700831   0.221006
     H   0.564736   0.798409   0.059082
     C   0.424882   0.735186   0.280065
     C   0.242945   0.879589   0.156479
     C   0.536118   0.678319   0.300614
     H   0.675352   0.657471   0.237883
     H   0.387406   0.716026   0.343332
     C   0.186117   0.862668   0.235300
     O   0.192902   0.951535   0.063449
     H   0.583361   0.616299   0.378055
     C   0.080966   0.927509   0.218570
     H   0.228464   0.795837   0.309724
     C   0.012625   0.915217   0.286626
     H   0.043477   0.995085   0.143370
     C   0.040455   0.824310   0.380064
     C   0.907251   0.993415   0.257627
     C   0.969213   0.812362   0.440143
     H   0.120051   0.760787   0.405687
     C   0.835121   0.983710   0.317179
     H   0.882520   0.063178   0.185053
     C   0.863882   0.892567   0.411149
     H   0.994886   0.740670   0.510840
     H   0.754722   0.045639   0.290449
     N   0.794108   0.882417   0.471134
     C   0.824807   0.786936   0.565688
     C   0.689632   0.968409   0.443234
     H   0.825708   0.687983   0.532482
     H   0.756495   0.790839   0.600726
     H   0.915649   0.806503   0.639046
     H   0.718006   0.070983   0.451117
     H   0.650318   0.949824   0.505624
     H   0.618163   0.952010   0.352175
     C   0.587141   0.165095   0.900692
     C   0.473757   0.221724   0.878515
     C   0.639719   0.184851   0.819705
     O   0.644527   0.091807   0.999031
     C   0.412931   0.299169   0.778994
     H   0.435264   0.201591   0.940918
     C   0.575118   0.264814   0.719935
     C   0.463882   0.321681   0.699386
     H   0.324648   0.342529   0.762117
     H   0.612594   0.283974   0.656668
     H   0.416639   0.383701   0.621945
     C   0.757055   0.120411   0.843521
     C   0.813883   0.137332   0.764700
     O   0.807098   0.048465   0.936551
     C   0.919034   0.072491   0.781430
     H   0.771536   0.204163   0.690276
     C   0.987375   0.084783   0.713374
     H   0.956523   0.004915   0.856630
     C   0.959545   0.175690   0.619936
     C   0.092749   0.006585   0.742373
     C   0.030787   0.187638   0.559857
     H   0.879949   0.239213   0.594313
     C   0.164879   0.016290   0.682821
     H   0.117481   0.936822   0.814947
     C   0.136118   0.107433   0.588851
     H   0.005114   0.259330   0.489160
     H   0.245278   0.954361   0.709551
     N   0.205892   0.117583   0.528866
     C   0.175193   0.213064   0.434312
     H   0.174292   0.312017   0.467518
     H   0.084352   0.193497   0.360954
     C   0.310368   0.031591   0.556766
     H   0.281995   0.929017   0.548883
     H   0.381837   0.047990   0.647825
     H   0.243505   0.209161   0.399274
     H   0.349682   0.050176   0.494376
     H   0.723072   0.440342   0.491833
     H   0.276928   0.559658   0.508168
     H   0.276928   0.940342   0.008167
     H   0.723072   0.059658   0.991832
