
  xtb     02232216543D
 xtb: 6.3.3 (5b13467)
 15 16  0     0  0            999 V2000
   -0.2595   -1.0299    0.5726 C   0  0  0  0  0  0  0  0  0  0  0  0
    0.6894   -0.1253    1.4045 C   0  0  0  0  0  0  0  0  0  0  0  0
   -1.4584   -0.0681    0.4093 C   0  0  0  0  0  0  0  0  0  0  0  0
    0.4073   -0.8674   -0.8554 C   0  0  0  0  0  0  0  0  0  0  0  0
   -0.5339   -2.2148    0.9414 H   0  0  0  0  0  0  0  0  0  0  0  0
    1.1902    0.9932    0.3478 C   0  0  0  0  0  0  0  0  0  0  0  0
    1.2234   -0.1383    2.6557 H   0  0  0  0  0  0  0  0  0  0  0  0
   -1.1313    0.9080   -0.5577 C   0  0  0  0  0  0  0  0  0  0  0  0
   -2.5263   -0.2702    0.7728 H   0  0  0  0  0  0  0  0  0  0  0  0
    0.3748    0.6545   -0.8967 C   0  0  0  0  0  0  0  0  0  0  0  0
    1.3540   -1.5676   -1.0879 H   0  0  0  0  0  0  0  0  0  0  0  0
   -0.3470   -1.2845   -1.5747 H   0  0  0  0  0  0  0  0  0  0  0  0
    2.1357    1.6421    0.4248 H   0  0  0  0  0  0  0  0  0  0  0  0
   -1.6552    1.7879   -1.0682 H   0  0  0  0  0  0  0  0  0  0  0  0
    0.7836    1.0326   -1.9142 H   0  0  0  0  0  0  0  0  0  0  0  0
  1  2  1  0  0  0  0
  1  3  1  0  0  0  0
  1  4  1  0  0  0  0
  1  5  1  0  0  0  0
  2  6  2  0  0  0  0
  2  7  1  0  0  0  0
  3  8  2  0  0  0  0
  3  9  1  0  0  0  0
  4 10  1  0  0  0  0
  6 10  1  0  0  0  0
  8 10  1  0  0  0  0
  4 11  1  0  0  0  0
  4 12  1  0  0  0  0
  6 13  1  0  0  0  0
  8 14  1  0  0  0  0
 10 15  1  0  0  0  0
M  END
