15
rl
     C  -0.257728  -1.000886   0.579750
     C   0.728974  -0.071607   1.341114
     C  -1.448487  -0.031975   0.368514
     C   0.422012  -0.899713  -0.852195
     H  -0.435642  -1.969863   0.991325
     C   1.175227   0.873418   0.433341
     H   1.096789  -0.096020   2.285525
     C  -1.102598   0.861691  -0.539261
     H  -2.577937  -0.259799   0.793439
     C   0.350124   0.695001  -0.931293
     H   1.369874  -1.497768  -0.915181
     H  -0.498761  -1.299816  -1.487122
     H   1.956108   1.706477   0.621442
     H  -1.824969   1.708367  -0.891355
     H   0.690675   1.153842  -1.957640
15
rl
     C  -0.259120  -1.004230   0.578664
     C   0.725959  -0.073029   1.341611
     C  -1.450362  -0.033639   0.372436
     C   0.423394  -0.894881  -0.852111
     H  -0.443432  -1.989195   0.983428
     C   1.175746   0.880720   0.429675
     H   1.114721  -0.095141   2.325258
     C  -1.104395   0.862797  -0.539209
     H  -2.535233  -0.256825   0.773410
     C   0.349598   0.690971  -0.926377
     H   1.353298  -1.505200  -0.931256
     H  -0.486130  -1.295104  -1.484643
     H   1.961647   1.689280   0.600501
     H  -1.812917   1.722633  -0.913461
     H   0.703989   1.141926  -1.969022
15
rl
     C  -0.260096  -1.007058   0.577358
     C   0.721961  -0.075785   1.342936
     C  -1.453306  -0.037717   0.379045
     C   0.423852  -0.890240  -0.852194
     H  -0.452770  -2.015626   0.978262
     C   1.176806   0.889738   0.424329
     H   1.135207  -0.095370   2.375444
     C  -1.105793   0.866650  -0.541607
     H  -2.490818  -0.253605   0.752575
     C   0.349671   0.686710  -0.921592
     H   1.340497  -1.513592  -0.948190
     H  -0.470586  -1.290683  -1.483820
     H   1.967914   1.672889   0.579795
     H  -1.798752   1.735806  -0.934911
     H   0.717241   1.130009  -1.977706
15
rl
     C  -0.260615  -1.009560   0.575955
     C   0.717175  -0.079829   1.345609
     C  -1.456871  -0.043905   0.387856
     C   0.423345  -0.885803  -0.852432
     H  -0.463381  -2.046881   0.974822
     C   1.178279   0.900382   0.417345
     H   1.155783  -0.096757   2.429428
     C  -1.106863   0.872964  -0.546159
     H  -2.449490  -0.250785   0.733079
     C   0.350567   0.682301  -0.917007
     H   1.331820  -1.522849  -0.965842
     H  -0.452982  -1.286920  -1.485148
     H   1.975622   1.657897   0.559187
     H  -1.782985   1.747938  -0.955546
     H   0.729784   1.117836  -1.982983
15
rl
     C  -0.260777  -1.011976   0.574499
     C   0.711855  -0.084972   1.349829
     C  -1.460558  -0.051865   0.398529
     C   0.421984  -0.881624  -0.852778
     H  -0.474595  -2.080392   0.972186
     C   1.179968   0.912355   0.408927
     H   1.174802  -0.099119   2.482694
     C  -1.107635   0.881540  -0.552670
     H  -2.416483  -0.249642   0.716770
     C   0.352276   0.677812  -0.912739
     H   1.327193  -1.532712  -0.984069
     H  -0.434319  -1.283918  -1.488974
     H   1.986098   1.645472   0.538983
     H  -1.765685   1.758721  -0.975227
     H   0.741394   1.105300  -1.984307
15
rl
     C  -0.260655  -1.014549   0.573049
     C   0.706227  -0.091010   1.355706
     C  -1.463796  -0.061181   0.410611
     C   0.419904  -0.877770  -0.853192
     H  -0.485806  -2.113694   0.969480
     C   1.181701   0.925375   0.399306
     H   1.190995  -0.102358   2.531833
     C  -1.108160   0.892071  -0.560853
     H  -2.397628  -0.251504   0.705609
     C   0.354786   0.673314  -0.908888
     H   1.326161  -1.542667  -1.002617
     H  -0.415639  -1.281829  -1.495715
     H   2.000449   1.636429   0.519316
     H  -1.747179   1.768220  -0.993933
     H   0.751889   1.092378  -1.981419
15
rl
     C  -0.260308  -1.017492   0.571660
     C   0.700491  -0.097726   1.363252
     C  -1.466107  -0.071439   0.423669
     C   0.417258  -0.874321  -0.853644
     H  -0.496477  -2.144674   0.965992
     C   1.183332   0.939183   0.388740
     H   1.203472  -0.106425   2.574493
     C  -1.108479   0.904209  -0.570389
     H  -2.397612  -0.257419   0.700985
     C   0.358064   0.668870  -0.905537
     H   1.328001  -1.552023  -1.021146
     H  -0.397924  -1.280797  -1.505757
     H   2.019397   1.631183   0.500205
     H  -1.727950   1.776791  -1.011760
     H   0.761178   1.079133  -1.974334
15
rl
     C  -0.259787  -1.020980   0.570373
     C   0.694820  -0.104896   1.372405
     C  -1.467283  -0.082296   0.437379
     C   0.414198  -0.871370  -0.854119
     H  -0.506146  -2.171673   0.961192
     C   1.184763   0.953554   0.377502
     H   1.211656  -0.111296   2.609142
     C  -1.108606   0.917597  -0.580962
     H  -2.417990  -0.267749   0.703141
     C   0.362056   0.664535  -0.902758
     H   1.331864  -1.560010  -1.039258
     H  -0.381989  -1.280900  -1.519380
     H   2.043120   1.629689   0.481571
     H  -1.708593   1.785037  -1.028913
     H   0.769276   1.065710  -1.963346
15
rl
     C  -0.259129  -1.025144   0.569219
     C   0.689370  -0.112298   1.383051
     C  -1.467471  -0.093506   0.451551
     C   0.410860  -0.869014  -0.854619
     H  -0.514435  -2.193496   0.954724
     C   1.185943   0.968297   0.365884
     H   1.215190  -0.116964   2.634827
     C  -1.108523   0.931893  -0.592277
     H  -2.456362  -0.282038   0.711111
     C   0.366676   0.660351  -0.900606
     H   1.336890  -1.565872  -1.056529
     H  -0.368377  -1.282113  -1.536682
     H   2.071204   1.631487   0.463244
     H  -1.689778   1.793754  -1.045710
     H   0.776313   1.052341  -1.949029
15
rl
     C  -0.258365  -1.030054   0.568221
     C   0.684293  -0.119698   1.395024
     C  -1.467070  -0.104932   0.466104
     C   0.407346  -0.867356  -0.855172
     H  -0.521046  -2.209373   0.946381
     C   1.186855   0.983218   0.354217
     H   1.213833  -0.123415   2.650917
     C  -1.108161   0.946794  -0.604072
     H  -2.507471  -0.299241   0.723231
     C   0.371809   0.656345  -0.899138
     H   1.342297  -1.568932  -1.072524
     H  -0.357283  -1.284267  -1.557541
     H   2.102693   1.635931   0.444995
     H  -1.672191   1.803884  -1.062553
     H   0.782528   1.039346  -1.932243
15
rl
     C  -0.257528  -1.035687   0.567399
     C   0.679770  -0.126789   1.408084
     C  -1.466551  -0.116564   0.481037
     C   0.403706  -0.866510  -0.855830
     H  -0.525762  -2.218918   0.936068
     C   1.187456   0.998005   0.342943
     H   1.207313  -0.130598   2.656736
     C  -1.107365   0.962073  -0.616126
     H  -2.565281  -0.318045   0.737803
     C   0.377288   0.652519  -0.898443
     H   1.347425  -1.568617  -1.086806
     H  -0.348491  -1.287030  -1.581666
     H   2.136206   1.642661   0.426562
     H  -1.656490   1.816466  -1.079929
     H   0.788247   1.027140  -1.914128
