128

C        8.965404852   2.482978099   1.607195960
C        8.537041991   3.459324927   0.735525554
C        7.205606450   3.482464143   0.294539177
C        4.387041992   3.563580327  -0.576205415
C        3.048166290   3.590792002  -0.998007256
C        2.167114368   2.624803113  -0.564948700
C        1.708776885   0.591794784   0.741728632
C        2.149105875  -0.434130455   1.548188986
C        3.493344685  -0.486596027   1.950736827
C        6.293514461  -0.507539043   2.905266880
C        7.629165750  -0.516821514   3.337268902
C        8.510465760   0.451645371   2.913488043
C        8.069360070   1.480636907   2.048064789
C        6.274150664   2.536685023   0.717673693
C        4.875425653   2.570114946   0.274005282
C        2.606141179   1.593176340   0.299807612
C        4.413353994   0.491265385   1.579478766
C        5.809162376   0.471934605   2.041056084
C        6.703058759   1.500168732   1.604654809
C        3.976200963   1.552992255   0.725575563
H        9.996246460   2.454393110   1.962937158
H        9.228360626   4.221441498   0.374717652
H        6.920252835   4.269113404  -0.400762173
H        5.047975349   4.346224966  -0.943706552
H        2.726171498   4.381285500  -1.676430034
H        1.124373495   2.627834572  -0.888683273
H        0.665765519   0.657914124   0.433163083
H        1.466205928  -1.214490434   1.884544342
H        3.801754483  -1.319015441   2.579476598
H        5.643858377  -1.302788381   3.263658452
H        7.955164215  -1.303040646   4.016529585
H        9.555842105   0.440357854   3.226910882
C        0.213157552   7.884340376   3.926593208
C       -0.835234852   8.303021901   9.323234040
C        7.917022448   2.901659624   7.003836792
C        0.646487649   8.866889747   4.787884224
C       -0.406871991   7.326675073  10.194904446
C        7.483692351   1.919110253   6.142545776
C        1.977176221   8.885351079   5.230695678
C        0.924563550   7.303535857  10.635890823
C        6.152993779   1.900648921   5.699734322
C        4.790003807   8.940936128   6.122590119
C        5.851958008   7.222419673   0.576205415
C        3.340166193   1.845063872   4.807839881
C        6.132860106   8.974063302   6.530194172
C        7.190833710   7.195207998   0.998007256
C        1.997309894   1.811936698   4.400235828
C        7.017781507   8.020287105   6.077476995
C        8.071885632   8.161196887   0.564948700
C        1.112388493   2.765712895   4.852953005
C        7.477660673   6.003173464   4.745864437
C        6.421393115  10.194205216  10.188691368
C        0.652509327   4.782826536   6.184565563
C        7.040531721   4.990123782   3.921108631
C        5.981074125   0.434130455   9.382241014
C        1.089638279   5.795876218   7.009321369
C        5.695737409   4.939276491   3.521884265
C        4.636835315   0.486596027   8.979693173
C        2.434432591   5.846723509   7.408545735
C        2.887013478   4.909683070   2.600639937
C        1.836655539   0.507539043   8.025163120
C        5.243166522   5.876316930   8.329790063
C        1.548151678   4.895557101   2.179796805
C        0.501004250   0.516821514   7.593151098
C        6.582028322   5.890442899   8.750633195
C        0.662927419   5.852181303   2.620657680
C       -0.380295760  10.334354629   8.016941957
C        7.467242581   4.933818697   8.309762320
C        1.105785282   6.877227312   3.489576907
C        0.060809930   9.305363093   8.882365211
C        7.024384718   3.908772688   7.440853093
C        2.903519241   7.930541661   4.816609558
C        1.856019336   8.249314977  10.212756307
C        5.226660759   2.855458339   6.113820442
C        4.302697243   7.958640969   5.259748806
C        3.254744347   8.215875054  10.656424718
C        3.827472757   2.827349031   5.670681194
C        6.578168389   6.993878658   5.206619918
C        5.524038821   9.192823660  10.630622388
C        1.552001611   3.792121342   5.723810082
C        4.770412067   5.901514330   3.922556903
C        3.716816006  10.294734615   9.350951234
C        3.359757933   4.884485670   7.007873097
C        3.371170209   5.879444074   3.474500051
C        2.321017624  10.314065395   8.889373916
C        4.758999791   4.906555926   7.455929949
C        2.473474521   6.896514697   3.928484661
C        1.427111241   9.285831268   9.325775191
C        5.656695479   3.889485303   7.001945339
C        5.205157925   6.952067687   4.790729373
C        4.153969037   9.233007745  10.204854437
C        2.925012075   3.833932313   6.139690627
H        9.421926160   7.859803182   3.569025350
H        8.372923540   8.331606890   8.967492842
H       -1.291756160   2.926196818   7.361404650
H       -0.036337926   9.642822810   5.133984172
H       -1.098180626   6.564558502  10.555712348
H        8.166507926   1.143177190   5.796445828
H        2.269340567   9.681422285   5.911756897
H        3.318747165   6.516886596   0.400762173
H        5.860829433   1.104577715   5.018673103
H        4.126225494   9.709969192   6.511921773
H        5.191024651   6.439775034   0.943706552
H        4.003944506   1.076030808   4.418508227
H        6.456734162   9.760842904   7.211921345
H        7.512828502   6.404714500   1.676430034
H        1.673435838   1.025157096   3.718508655
H        8.064444168   8.029918937   6.387818638
H        9.114626505   8.158165428   0.888683273
H        0.065725832   2.756081063   4.542601362
H        8.520790445   6.067961395   5.054174395
H        7.464404481  10.128085876  10.497266917
H       -0.390610445   4.718038605   5.876255605
H        7.726442491   4.219664000   3.569073381
H        6.663974072   1.214490434   9.045885658
H        0.403737509   6.566336000   7.361356619
H        5.388033619   4.116012231   2.881040566
H        4.328425517   1.319015441   8.350953402
H        2.742136381   6.669987769   8.049389434
H        3.540011903   4.125187148   2.225658623
H        2.486311623   1.302788381   7.666761548
H        4.590158097   6.660812852   8.704771377
H        1.222912593   4.114905194   1.493753224
H        0.175005785   1.303040646   6.913900415
H        6.907257407   6.671094806   9.436676776
H       -0.385312853   5.835777641   2.317030720
H       -1.425672105  10.345642146   7.703519118
H        8.515492853   4.950222359   8.613399280
